187   

Si        0.000000000     0.000000000     0.000000000
 C        1.865593189     0.000000000     0.000000000
 C       -0.682518774     1.709681234     0.000000000
 C        0.155142048     2.826758290    -0.074889928
 C       -0.378813619     4.115407797    -0.073751287
 C       -1.759976033     4.315997557    -0.010319743
 C       -2.598509265     3.195638637     0.063924056
 C       -2.068036633     1.908908350     0.074361031
 C       -2.363268781     5.644194482    -0.006565862
 C       -1.674512583     6.796559544    -0.062379020
 C       -2.279348503     8.123718694    -0.058529902
 C       -1.441939903     9.244613362    -0.120979314
 C       -1.973311866    10.531937403    -0.119940985
 C       -3.356797884    10.728140845    -0.041019169
 C       -4.196665250     9.609639698     0.014203264
 C       -3.662505701     8.322114067    -0.009109164
Si       -4.094218442    12.411748217    -0.037092772
 C       -5.435419016    12.548590254     1.198426173
 C       -5.472276536    11.844902160     2.337616542
 C       -6.541821753    11.947212309     3.333532580
 C       -6.460006059    11.151868134     4.487677329
 C       -7.443617221    11.208981977     5.461342327
 C       -8.527536289    12.089417260     5.307465165
 C       -8.618834904    12.885537184     4.161419922
 C       -7.635375887    12.801286722     3.179528584
 N       -9.497569182    12.081856771     6.363564176
 C       -9.050280031    12.907331305     7.509146017
 C      -10.873032609    12.387860540     5.933128578
 C       -9.086729062    14.428205857     7.257158090
 C       -8.117411170    15.191863515     8.180308276
 N       -6.841748407    15.592587045     7.550670828
 C       -5.984376473    14.516738885     7.197937211
 C       -5.572682179    13.643430435     8.223962838
 C       -4.736259050    12.576870342     7.936815068
 C       -4.257899027    12.363458306     6.635527731
 C       -4.642345663    13.253111502     5.629480351
 C       -5.480100423    14.328821469     5.902797323
 C       -7.021059579    16.632762277     6.522933016
 C       -3.376562081    11.220541041     6.387684481
 C       -2.858051870    10.914696974     5.190844833
Si       -1.756537875     9.490089105     4.870089343
 C       -0.724514794     9.022244946     6.317450004
 C       -0.420203485     9.955738017     7.313814505
 C        0.363215699     9.594272720     8.409160901
 C        0.871615288     8.297932231     8.526511065
 C        0.575583137     7.367119930     7.521818871
 C       -0.208668430     7.724340325     6.428403141
 C        1.695377801     7.874187732     9.653857408
 C        2.052167610     8.663951602    10.680919942
 C        2.876047142     8.238965463    11.807772422
 C        3.381396626     6.941650680    11.925111748
 C        4.165432102     6.577631764    13.019839887
 C        4.454278779     7.503459335    14.027162934
 C        3.946732705     8.804946193    13.913035025
 C        3.169726381     9.166877211    12.816291361
Si        5.487129965     7.040407528    15.478702583
 C        5.776865270     5.199036953    15.555997997
 C        7.173792559     7.916224789    15.370101389
 C        4.594575593     7.633386315    17.052052788
 C       -2.862601551     8.002962231     4.421194741
 C       -0.662426223     9.896704661     3.372726161
 C       -2.774292607    13.707883551     0.416132464
 C       -4.786997881    12.801878828    -1.761188433
 C       -0.585172013    -0.938475771    -1.550021293
 C       -0.668381178    -0.889874597     1.543541381
 H        1.243053102     2.732285589    -0.132851131
 H        0.295705536     4.968160100    -0.127060885
 H       -3.677383958     3.329861531     0.116937836
 H       -2.770829094     1.073487805     0.143718991
 H       -3.456025058     5.650109548     0.046586527
 H       -0.582018514     6.790558777    -0.115252362
 H       -0.362721352     9.111661114    -0.169783392
 H       -1.269785539    11.367023351    -0.178402053
 H       -5.286155699     9.704386418     0.076529272
 H       -4.335937301     7.467491388     0.021060820
 H       -6.218882906    13.279377699     0.949415836
 H       -4.699078943    11.109391236     2.607079386
 H       -5.608281082    10.481007632     4.629671455
 H       -7.384639709    10.582387831     6.350603034
 H       -9.454120696    13.565528551     4.027776740
 H       -7.724182099    13.420892283     2.287722228
 H      -11.556182707    12.168105412     6.771828669
 H      -11.146198840    11.715734401     5.100794115
 H      -11.039965626    13.426187901     5.612138294
 H       -7.575690394    17.479207294     6.962780268
 H       -7.558268905    16.295944130     5.622425453
 H       -6.029849259    17.016887178     6.221512061
 H       -5.911075097    13.812079194     9.243068373
 H       -4.439620506    11.900591618     8.738961682
 H       -4.285318163    13.111920360     4.606581051
 H       -5.765670487    14.991448124     5.091545026
 H       -3.178210178    10.626209513     7.290434380
 H       -3.081768031    11.523888663     4.299667983
 H       -0.780232815    10.989205119     7.270082872
 H        0.579960220    10.337314849     9.174494604
 H        0.963446717     6.352820163     7.593133314
 H       -0.402851296     6.956012148     5.674055599
 H        2.021516847     6.830662159     9.614969337
 H        1.726471256     9.707515693    10.719867465
 H        3.167494923     6.200717171    11.157044324
 H        4.534197420     5.548828373    13.054777964
 H        4.138431610     9.570259036    14.670549705
 H        2.785625409    10.182686670    12.744492058
 H       -9.689636310    12.643244038     8.379069886
 H       -8.012534846    12.588126278     7.768552409
 H       -8.833485688    14.632538575     6.197917525
 H      -10.114344629    14.806892520     7.394749869
 H       -8.604608010    16.120871896     8.555584816
 H       -7.884312242    14.590511912     9.087220699
 H        2.263142710    -1.030561364     0.020118606
 H        2.264897385     0.525450609     0.886294610
 H        2.272300481     0.496109036    -0.898855005
 H        6.365012842     4.925692649    16.450178315
 H        6.328042597     4.834789898    14.671356680
 H        4.819842782     4.648919548    15.607907837
 H        7.771974477     7.532148293    16.246472562
 C        7.937398278     7.564964430    14.079936743
 C        7.086705426     9.448267029    15.488929161
 H        4.496631078     8.753228519    16.948124796
 C        3.176828993     7.047446162    17.180711138
 C        5.375653480     7.346446566    18.346720392
 H       -2.163099742     7.205015156     4.037892646
 C       -3.616532610     7.438438515     5.638505070
 C       -3.880198427     8.315733305     3.314035674
 H       -1.370972870    10.137212851     2.523974052
 C        0.229690929    11.126716856     3.616016424
 C        0.218594447     8.716346974     2.927823312
 H       -1.948692471    13.593359706    -0.343371461
 C       -3.295641769    15.153833342     0.334642426
 C       -2.179766329    13.475355675     1.816958327
 H       -5.205638189    13.847996517    -1.700608089
 C       -3.710327893    12.781525617    -2.860213349
 C       -5.931275573    11.854698970    -2.164360278
 H       -0.038090304    -1.925584304    -1.526211619
 C       -2.094785307    -1.235845387    -1.576553796
 C       -0.203876252    -0.212653715    -2.853485916
 H       -1.792806728    -0.877993478     1.441736140
 C       -0.218318912    -2.357634490     1.649956120
 C       -0.307383146    -0.158105385     2.849041271
 H        8.119296563     6.489299458    13.959388766
 H        8.926478503     8.045061978    14.084873299
 H        7.428068855     7.919632033    13.172222116
 H        6.615117116     9.788016440    16.419628482
 H        6.549498241     9.910725946    14.648949873
 H        8.096990106     9.882959224    15.481343344
 H        2.538471453     7.262207969    16.311608789
 H        2.666104037     7.483091546    18.051271401
 H        3.173629731     5.960002327    17.332619971
 H        6.375927896     7.798296253    18.360158303
 H        5.490536618     6.273269048    18.548716453
 H        4.837818675     7.765202526    19.209800196
 H       -2.952812623     7.113140589     6.450948664
 H       -4.196564895     6.552914697     5.342913269
 H       -4.335952096     8.151573290     6.065666959
 H       -3.428377777     8.770212320     2.420461127
 H       -4.690481944     8.976315636     3.652190204
 H       -4.361377593     7.388487648     2.972118599
 H       -0.332768135    12.026117947     3.902391888
 H        0.779415560    11.382316388     2.699427392
 H        0.990555904    10.953982018     4.390400801
 H       -0.364070016     7.847395390     2.591220979
 H        0.912446850     8.375639295     3.708564429
 H        0.843269699     9.014242241     2.073697389
 H       -3.665179921    15.429980452    -0.660762124
 H       -2.483402519    15.859160362     0.563249005
 H       -4.095077408    15.362085170     1.059716019
 H       -1.738373631    12.476452575     1.946774899
 H       -2.916114611    13.619620645     2.621433982
 H       -1.371331939    14.195016849     2.008074519
 H       -2.897752068    13.499178479    -2.688650192
 H       -4.156215504    13.049384751    -3.829228312
 H       -3.256452738    11.789481860    -2.997087188
 H       -6.767264454    11.850854276    -1.451733359
 H       -5.598998286    10.814781168    -2.294960695
 H       -6.352950223    12.163973194    -3.131522606
 H       -2.445387742    -1.798279359    -0.702057736
 H       -2.339173347    -1.851930417    -2.454446405
 H       -2.706761436    -0.327473928    -1.662962500
 H        0.874703037    -0.036557972    -2.956344724
 H       -0.710279839     0.756786241    -2.966316270
 H       -0.500320398    -0.817546138    -3.722369565
 H       -0.501673069    -2.963976164     0.779930711
 H       -0.690841720    -2.832605096     2.522155801
 H        0.865255214    -2.463808561     1.792851689
 H       -0.651636389     0.885771435     2.870473492
 H        0.770802147    -0.155753106     3.056551876
 H       -0.786080119    -0.655895891     3.704519295

