187   

Si        0.000000000     0.000000000     0.000000000
 C        1.865314169     0.000000000     0.000000000
 C       -0.669593151     1.714885082     0.000000000
 C        0.090815304     2.776541071    -0.501598299
 C       -0.416924687     4.075357148    -0.501340045
 C       -1.696424644     4.342409145    -0.006872546
 C       -2.459441685     3.276807253     0.488805674
 C       -1.955435281     1.978911214     0.489566572
 C       -2.268580111     5.684447567     0.013387419
 C       -1.645390912     6.789352280    -0.430327459
 C       -2.219002679     8.130865586    -0.409368503
 C       -1.458442577     9.197567025    -0.904604999
 C       -1.965096582    10.495442016    -0.904649064
 C       -3.240504356    10.759055106    -0.394142565
 C       -4.001734085     9.693743954     0.104143256
 C       -3.497382684     8.395071547     0.091387527
Si       -3.960364385    12.454571629    -0.368956116
 C       -4.911989787    12.718154929     1.172196542
 C       -4.602871155    12.108557323     2.324474726
 C       -5.324346032    12.279217296     3.584935021
 C       -4.878902057    11.571020439     4.708354300
 C       -5.517660435    11.687643658     5.933042306
 C       -6.697797057    12.450797990     6.052160048
 C       -7.161234603    13.144634882     4.913681317
 C       -6.468565325    13.072548262     3.713566301
 N       -7.362366475    12.583768148     7.280800389
 C       -6.994436470    11.683046200     8.384970029
 C       -8.795176782    12.915714358     7.217665016
 C       -7.185835941    10.178053106     8.117898419
 C       -8.603947770     9.668057273     8.437997183
 N       -9.182351937     8.772873132     7.409582888
 C       -9.501843826     9.485564859     6.207353642
 C      -10.720967517    10.183230931     6.213328854
 C      -11.110268872    10.900134750     5.092635106
 C      -10.298285827    10.942622332     3.949482072
 C       -9.092090986    10.237224651     3.949056219
 C       -8.697414970     9.502254726     5.062652259
 C       -8.390149047     7.547892030     7.199451632
 C      -10.762847929    11.716877566     2.796019606
 C      -10.082908782    11.836168025     1.649287903
Si      -10.636868741    12.794430882     0.194607167
 C       -9.258406315    13.889490841    -0.331236045
 C       -8.479466522    14.515492617     0.651499345
 C       -7.427744696    15.351199565     0.287939754
 C       -7.151670464    15.604981206    -1.062203559
 C       -7.938038611    14.988038136    -2.038928276
 C       -8.979943591    14.134273335    -1.678577458
 C       -6.039373103    16.487390128    -1.394493733
 C       -5.655511122    16.798378742    -2.644154538
 C       -4.541646891    17.681994939    -2.970633341
 C       -3.757421993    18.297226635    -1.991320748
 C       -2.701033940    19.135507025    -2.346510060
 C       -2.397720712    19.365409703    -3.691982189
 C       -3.179246829    18.744749586    -4.676029465
 C       -4.237928650    17.914726144    -4.318491717
Si       -1.007304101    20.468571612    -4.180425031
 C        0.036929884    20.948619628    -2.711116249
 C        0.047203866    19.543039192    -5.466561501
 C       -1.693265814    22.054355227    -4.978507175
 C      -11.105456029    11.574684890    -1.186179543
 C      -12.147764909    13.874149276     0.600119503
 C       -2.545682162    13.726718518    -0.458616392
 C       -5.114051332    12.703375017    -1.852775084
 C       -0.629490040    -0.906668416    -1.550539140
 C       -0.649713453    -0.920150668     1.535026409
 H        1.098171398     2.630262147    -0.901103552
 H        0.196521295     4.884447036    -0.893596948
 H       -3.459135538     3.462426126     0.876917088
 H       -2.598278948     1.188479403     0.886483885
 H       -3.279085380     5.744486047     0.427967683
 H       -0.635246009     6.729806712    -0.845851404
 H       -0.461085653     9.013492051    -1.298568216
 H       -1.329173787    11.285427064    -1.313104161
 H       -5.006828191     9.841755418     0.515567245
 H       -4.109709190     7.583768568     0.480007449
 H       -5.753471801    13.422595504     1.094700797
 H       -3.759975010    11.406054747     2.410717151
 H       -3.996182271    10.934493751     4.630702340
 H       -5.097504703    11.176335127     6.792551143
 H       -8.060418651    13.750300803     4.968037668
 H       -6.837459298    13.632621846     2.852306695
 H       -9.287191143    12.748185931     8.187516146
 H       -9.339471369    12.328725705     6.454904051
 H       -8.899388149    13.990544461     6.979624947
 H       -8.430111868     6.949538743     8.126455014
 H       -7.334165460     7.716520724     6.940346590
 H       -8.855213287     6.945701692     6.399660406
 H      -11.356040379    10.140308413     7.096400394
 H      -12.061746373    11.430912226     5.101540339
 H       -8.441337582    10.262422807     3.072481664
 H       -7.755123540     8.960597904     5.040182212
 H      -11.736586361    12.195024598     2.963955730
 H       -9.106785917    11.340227240     1.507838978
 H       -8.663484652    14.361471047     1.720648391
 H       -6.819630271    15.818369845     1.061416382
 H       -7.740940818    15.167982388    -3.093886470
 H       -9.556589041    13.674055141    -2.484835660
 H       -5.514530303    16.906043438    -0.529588780
 H       -6.181000261    16.384417036    -3.509261831
 H       -3.968783908    18.130218169    -0.936273562
 H       -2.126215289    19.592794588    -1.536261071
 H       -2.986561944    18.886019105    -5.743356157
 H       -4.833876168    17.442315804    -5.096974326
 H       -5.921798283    11.884370095     8.626457482
 H       -7.561332465    11.990891340     9.291939720
 H       -6.947758131     9.964863590     7.054140098
 H       -6.442657039     9.605710204     8.701874091
 H       -8.605827119     9.107733682     9.398909689
 H       -9.307961527    10.518407697     8.575020440
 H        2.263561145    -1.028637403     0.058412726
 H        2.259039378     0.559080407     0.868513349
 H        2.276821698     0.464527070    -0.912934469
 H        0.881557668    21.591906954    -3.016539205
 H        0.462265220    20.055910923    -2.217534747
 H       -0.548463459    21.504577848    -1.957803811
 H       -0.640866505    19.334629397    -6.336928678
 C        1.237254611    20.365045160    -5.991974751
 C        0.563171960    18.191104064    -4.940914833
 H       -0.794182757    22.708045277    -5.173680174
 C       -2.408566198    21.817631883    -6.320417239
 C       -2.645616618    22.819719699    -4.041307525
 H      -11.370870212    12.205806683    -2.083089670
 C       -9.942350214    10.647632068    -1.580829264
 C      -12.330677127    10.712495628    -0.833447603
 H      -12.930768970    13.173588978     1.011717100
 C      -11.845346951    14.938279556     1.671284127
 C      -12.738032863    14.572952631    -0.637555290
 H       -1.978571541    13.487705235    -1.404554216
 C       -3.026138545    15.183252897    -0.554819088
 C       -1.575345332    13.603148600     0.730699796
 H       -5.550747603    13.739589417    -1.726038322
 C       -4.392814835    12.656834508    -3.210058107
 C       -6.277645197    11.696755511    -1.863736762
 H       -0.163042819    -1.933233056    -1.518152896
 C       -2.159206312    -1.076635151    -1.575299076
 C       -0.187431047    -0.221898877    -2.856736069
 H       -1.774741492    -0.922986751     1.442420208
 C       -0.182516175    -2.384588507     1.615723422
 C       -0.285937927    -0.205612140     2.849244860
 H        0.940896608    21.321210261    -6.442309816
 H        1.761730631    19.804379577    -6.779491381
 H        1.985693033    20.577980183    -5.217094852
 H       -0.240636843    17.522832614    -4.599979152
 H        1.279188451    18.296117414    -4.115032772
 H        1.090916087    17.652512924    -5.740924003
 H       -1.774993130    21.332817952    -7.073818007
 H       -2.718290849    22.779603295    -6.754672637
 H       -3.325830048    21.221656285    -6.215247183
 H       -2.185281313    23.101314650    -3.085429945
 H       -3.564179468    22.259301761    -3.815302605
 H       -2.966981335    23.758229235    -4.515454310
 H       -9.031380830    11.187837155    -1.875326260
 H      -10.227617828    10.033344732    -2.446711536
 H       -9.668019230     9.943287511    -0.782657863
 H      -13.233063288    11.300454775    -0.622581243
 H      -12.155568414    10.050458441     0.026755739
 H      -12.584208855    10.055942969    -1.678257992
 H      -11.455903817    14.520138309     2.609594729
 H      -12.764631268    15.481101264     1.932489676
 H      -11.129394052    15.697899118     1.325177297
 H      -13.061449844    13.875408236    -1.420814463
 H      -12.043636765    15.291575538    -1.095605950
 H      -13.630727611    15.149422918    -0.354120530
 H       -3.648200554    15.374051328    -1.441455074
 H       -2.163914445    15.860291310    -0.641406693
 H       -3.588503221    15.507367207     0.330604065
 H       -1.143886949    12.599536388     0.843872554
 H       -2.043607082    13.869651877     1.689425741
 H       -0.727770408    14.289802098     0.598608743
 H       -3.615338063    13.425506082    -3.313388354
 H       -5.110942094    12.837075890    -4.022712798
 H       -3.931216848    11.681959028    -3.418050178
 H       -6.861262061    11.699637468    -0.931412037
 H       -5.949154454    10.665755785    -2.052336036
 H       -6.982708246    11.952572108    -2.667807160
 H       -2.548207544    -1.646304077    -0.721907096
 H       -2.461194684    -1.630339490    -2.476165373
 H       -2.695040761    -0.117325937    -1.611975705
 H        0.901875705    -0.131418948    -2.955173226
 H       -0.618357400     0.782374731    -2.978952200
 H       -0.525966028    -0.808668382    -3.722709808
 H       -0.464662816    -2.980280759     0.738033863
 H       -0.644575912    -2.878382508     2.482942449
 H        0.902951986    -2.480981260     1.750565371
 H       -0.634572444     0.836328042     2.888298408
 H        0.793816477    -0.199721710     3.049434346
 H       -0.755324889    -0.719095710     3.700322128

