187   

Si        0.000000000     0.000000000     0.000000000
 C        1.865053521     0.000000000     0.000000000
 C       -0.669814143     1.715218354     0.000000000
 C        0.089034763     2.776274933    -0.505403172
 C       -0.418773176     4.074997878    -0.505127276
 C       -1.696797289     4.342132230    -0.006996832
 C       -2.458253075     3.277513199     0.492795207
 C       -1.953886247     1.979752195     0.493996886
 C       -2.268588285     5.684265344     0.013239463
 C       -1.645723601     6.787831817    -0.434007089
 C       -2.219334471     8.128881020    -0.412818785
 C       -3.497971515     8.391534921     0.086314352
 C       -4.008896927     9.688922517     0.088134641
 C       -3.244240743    10.753194021    -0.399108074
 C       -1.962393601    10.494188416    -0.901944183
 C       -1.460898774     9.195380856    -0.914653224
Si       -3.888341524    12.474316762    -0.410605104
 C       -2.528204447    13.599789422     0.070798232
 C       -2.167932224    14.701978758    -0.598450263
 C       -1.075045404    15.592610434    -0.198061960
 C       -0.804419512    16.716208226    -0.993758434
 C        0.217510330    17.592255702    -0.662213689
 C        1.015642975    17.341563215     0.466644745
 C        0.778843242    16.202790648     1.242736621
 C       -0.244102860    15.325787944     0.893330468
 N        2.047498570    18.301626087     0.731150454
 C        1.522962514    19.494684666     1.436869597
 C        3.252193805    17.738119389     1.365946270
 C        1.176538645    19.271574008     2.921977261
 C       -0.155466383    19.915413679     3.351884137
 N       -1.371225315    19.117541032     3.086094277
 C       -1.352827815    17.777341932     3.522048688
 C       -0.639544924    17.422915033     4.687449800
 C       -0.615793278    16.107823258     5.123684545
 C       -1.326597496    15.106260870     4.449113266
 C       -2.072011538    15.468149199     3.323812856
 C       -2.113149522    16.782503783     2.878694266
 C       -1.936782710    19.355030763     1.745830693
 C       -1.266568261    13.733782170     4.953061860
 C       -1.904268951    12.699398621     4.389535296
Si       -1.840422983    10.978553831     5.005623175
 C       -0.240577819    10.624139268     5.840612810
 C        0.929753850    11.229710712     5.366348714
 C        2.155340670    10.978923797     5.980011572
 C        2.243250328    10.108414621     7.070447046
 C        1.072722020     9.497329920     7.537637099
 C       -0.155136616     9.750119360     6.929942925
 C        3.504913069     9.816814682     7.743207963
 C        4.694553164    10.335791564     7.394760797
 C        5.957190910    10.045654871     8.065951318
 C        6.048874826     9.180652014     9.159391971
 C        7.277516574     8.931797187     9.771078536
 C        8.442285972     9.549406133     9.304875300
 C        8.353063949    10.417587389     8.208263610
 C        7.126451737    10.659066567     7.596099417
Si       10.070991341     9.231237438    10.101375582
 C        9.872898546     8.399932574    11.759508500
 C       11.116183712     8.109338141     8.973471680
 C       10.974847564    10.894447649    10.303483707
 C       -3.307273378    10.644105657     6.163343569
 C       -1.972434397     9.853408026     3.474687205
 C       -4.509465509    12.863796334    -2.167721821
 C       -5.356200956    12.706276530     0.775173622
 C       -0.629929457    -0.905816905    -1.550594631
 C       -0.648804081    -0.920010278     1.535320688
 H        1.095680910     2.629386488    -0.906797757
 H        0.194150745     4.883637699    -0.899581740
 H       -3.456346321     3.463396246     0.884861497
 H       -2.594828406     1.189931099     0.895329197
 H       -3.277934385     5.744710319     0.430780232
 H       -0.636316688     6.727491378    -0.851476847
 H       -4.108405035     7.580678943     0.479093573
 H       -5.017319518     9.831489078     0.485941262
 H       -1.320314148    11.290980569    -1.292608491
 H       -0.465809578     9.009436397    -1.314841165
 H       -1.999453190    13.289126398     0.988707947
 H       -2.676610504    15.034842845    -1.512810221
 H       -1.409695185    16.912020716    -1.878187518
 H        0.426823960    18.463852913    -1.279889517
 H        1.388499365    15.991630848     2.117883557
 H       -0.402721132    14.431394710     1.500728419
 H        4.048414935    18.502035212     1.339685188
 H        3.601767559    16.875974354     0.771033212
 H        3.119552508    17.411166492     2.408234742
 H       -1.848062499    20.419322372     1.476736984
 H       -3.016742062    19.119451628     1.767064481
 H       -1.458110581    18.752146064     0.953370920
 H       -0.104506106    18.180083693     5.252601774
 H       -0.041013692    15.854616717     6.015504211
 H       -2.653752126    14.715570559     2.786832553
 H       -2.713524066    17.018056212     2.004735421
 H       -0.638619203    13.628494047     5.848537557
 H       -2.530443504    12.835735017     3.493526943
 H        0.922965527    11.915324474     4.511335380
 H        3.049904869    11.466696329     5.597721900
 H        1.119520644     8.815309043     8.384257409
 H       -1.034199460     9.244333721     7.337905366
 H        3.425436891     9.121172077     8.583657274
 H        4.773242360    11.030029489     6.553055720
 H        5.156395531     8.690449304     9.544050734
 H        7.286194845     8.244520147    10.621521291
 H        9.229846021    10.928475797     7.800527779
 H        7.077578938    11.334103395     6.743879127
 H        2.292334469    20.292468946     1.337491891
 H        0.632094026    19.853941782     0.876024025
 H        1.143768912    18.182591918     3.136460781
 H        1.991356462    19.664077123     3.557293246
 H       -0.134338634    20.111224218     4.451530135
 H       -0.272753350    20.913876925     2.877052098
 H        2.263390204    -1.028851676     0.055249764
 H        2.258962126     0.556306802     0.870416997
 H        2.276827115     0.467357986    -0.911390571
 H       10.851367679     8.253160931    12.250730006
 H        9.395824700     7.408675215    11.666216973
 H        9.249973623     9.011897303    12.436992552
 H       12.073034068     7.914451945     9.538822303
 C       10.439618757     6.753786777     8.698937404
 C       11.482700427     8.759008204     7.627036694
 H       11.102566593    11.305786642     9.259988512
 C       10.156224004    11.915064623    11.114732623
 C       12.373841996    10.760917192    10.931032914
 H       -3.209781240     9.566825621     6.485439868
 C       -3.268852600    11.526705093     7.423972463
 C       -4.677212388    10.808724691     5.480573328
 H       -2.927894175    10.147079120     2.949154278
 C       -0.805432564    10.082060174     2.498190312
 C       -2.057918282     8.355446710     3.809043238
 H       -4.798697608    13.954278576    -2.161903126
 C       -3.424734984    12.662158230    -3.241211830
 C       -5.750762954    12.044573208    -2.563471367
 H       -6.159470521    12.006510912     0.401566769
 C       -5.044908516    12.334214620     2.233653916
 C       -5.922068712    14.138383056     0.745177868
 H       -0.162636961    -1.932178523    -1.519224169
 C       -2.159478175    -1.077514758    -1.574318340
 C       -0.188930367    -0.220522131    -2.856877742
 H       -1.773998226    -0.920741505     1.444799579
 C       -0.183925077    -2.385269760     1.613858542
 C       -0.281428641    -0.207030679     2.849339117
 H       10.221470025     6.182319811     9.610217964
 H       11.099529524     6.119675917     8.089685374
 H        9.500897320     6.851575114     8.134656639
 H       12.055537524     9.688810380     7.733724663
 H       10.603513436     8.973053838     7.002975898
 H       12.114078535     8.075870512     7.040304569
 H        9.158297077    12.103799299    10.693539051
 H       10.671799960    12.885842171    11.129555947
 H       10.021573804    11.620505816    12.163933037
 H       13.043363421    10.101252496    10.364105242
 H       12.345754935    10.398620865    11.967198688
 H       12.865965223    11.743924437    10.962948179
 H       -2.341877071    11.420319371     8.004189322
 H       -4.089054631    11.254105758     8.102443228
 H       -3.396018902    12.595906550     7.199973888
 H       -4.813311836    10.146063877     4.615965612
 H       -4.867777131    11.839591369     5.150595218
 H       -5.481260249    10.559384328     6.187450043
 H       -0.713068464    11.123194910     2.160696909
 H       -0.961002441     9.481169995     1.587677974
 H        0.165033420     9.770866610     2.907430221
 H       -2.924958085     8.094456951     4.427374365
 H       -1.158121303     7.975540837     4.312565936
 H       -2.153625163     7.772108236     2.879719017
 H       -2.511296946    13.244520071    -3.059699918
 H       -3.802595740    12.979526192    -4.223441480
 H       -3.128284991    11.609000931    -3.353131848
 H       -6.617036287    12.223198166    -1.913929267
 H       -5.562641857    10.961610094    -2.581609012
 H       -6.071214569    12.314610132    -3.580412824
 H       -4.633262472    11.322392406     2.350638297
 H       -5.965305074    12.361436239     2.834786329
 H       -4.349394850    13.039710475     2.711462620
 H       -6.266684651    14.452642686    -0.247778551
 H       -5.203991911    14.890914398     1.102652409
 H       -6.797167949    14.210718195     1.406987921
 H       -2.545755154    -1.655197199    -0.725014685
 H       -2.462317884    -1.624051497    -2.479302545
 H       -2.697094595    -0.119025628    -1.601948744
 H        0.900577807    -0.135302129    -2.958319737
 H       -0.615336831     0.785914959    -2.976200314
 H       -0.532842473    -0.804079019    -3.722940511
 H       -0.474955910    -2.981290973     0.739309448
 H       -0.639674822    -2.877045980     2.485613548
 H        0.902416097    -2.484163244     1.739769356
 H       -0.626459772     0.836044741     2.889555783
 H        0.798619318    -0.204797977     3.048535718
 H       -0.751544556    -0.719358445     3.700770066

