187   

Si        0.000000000     0.000000000     0.000000000
 C        1.865350537     0.000000000     0.000000000
 C       -0.682469957     1.709352149     0.000000000
 C        0.130192795     2.813918600     0.273623836
 C       -0.400920827     4.103756935     0.270101735
 C       -1.754822034     4.318270040    -0.000193575
 C       -2.568649016     3.209847209    -0.270743327
 C       -2.041179378     1.921733951    -0.270647070
 C       -2.354937086     5.648116175    -0.015019210
 C       -1.690684201     6.791699223     0.223771659
 C       -2.294450447     8.120162516     0.208050335
 C       -1.484479616     9.232089226     0.475204072
 C       -2.017065307    10.518656921     0.471090178
 C       -3.377801511    10.721954070     0.209945581
 C       -4.188859511     9.613773519    -0.056192195
 C       -3.650075677     8.327763055    -0.061133654
Si       -4.093249085    12.416106981     0.201643348
 C       -5.904546353    12.326543573     0.422152194
 C       -6.811157507    12.942503795    -0.347248487
 C       -8.258019502    12.854921166    -0.149751387
 C       -9.096327907    13.553636256    -1.033150151
 C      -10.470368364    13.507441516    -0.894827955
 C      -11.072412430    12.691611944     0.089717131
 C      -10.232403116    11.983542732     0.968139785
 C       -8.849456377    12.093025208     0.858879005
 N      -12.472708549    12.662009710     0.210388018
 C      -13.283230496    12.848337009    -1.008194570
 C      -13.043463689    11.658996119     1.123149601
 C      -14.477401100    13.787879672    -0.740972596
 C      -14.052347238    15.158212110    -0.173653459
 N      -13.078732049    15.820060706    -1.062674134
 C      -11.968525555    16.455294982    -0.479763920
 C      -11.416619303    15.945027849     0.717074077
 C      -10.325465431    16.551896228     1.309157843
 C       -9.686976227    17.643121418     0.698556498
 C      -10.204937639    18.122708765    -0.505380155
 C      -11.324051827    17.543644749    -1.095529553
 C      -13.719030778    16.502602228    -2.197991641
 C       -8.536605647    18.243259836     1.374342361
 C       -7.840417554    19.284876263     0.901270754
Si       -6.401255767    20.054653187     1.722032166
 C       -6.628390481    21.877515264     1.807879956
 C       -7.911015340    22.432284502     1.717463952
 C       -8.087862177    23.812113318     1.781974983
 C       -6.991866386    24.668674008     1.949440731
 C       -5.713733044    24.110843948     2.046103599
 C       -5.532362569    22.730230922     1.977361612
 C       -7.228635011    26.107232612     2.011160814
 C       -6.268822383    27.035331540     2.164078497
 C       -6.506336105    28.473713251     2.225712287
 C       -7.783598536    29.031841660     2.129155744
 C       -7.965173090    30.413343705     2.193084019
 C       -6.869732959    31.268455379     2.348566283
 C       -5.587281483    30.711211361     2.444672367
 C       -5.409880265    29.331785044     2.386161357
Si       -7.091731376    33.093713703     2.434746986
 C       -8.816015285    33.600061009     1.934106982
 C       -6.773741910    33.690316566     4.214231175
 C       -5.808464147    33.903701426     1.285418237
 C       -6.179902352    19.377097346     3.486664229
 C       -4.838112704    19.638004742     0.721362739
 C       -3.357146315    13.441483020     1.624596471
 C       -3.648600850    13.266211755    -1.442034763
 C       -0.655276798    -0.902645500    -1.542807260
 C       -0.610269470    -0.926449849     1.546907769
 H        1.196372929     2.708959118     0.492454559
 H        0.253735032     4.947025907     0.482506705
 H       -3.625972906     3.354895888    -0.484279943
 H       -2.724435376     1.096615842    -0.490644096
 H       -3.425081397     5.663833957    -0.242099721
 H       -0.620784322     6.777456156     0.450787544
 H       -0.426418786     9.091755650     0.686925815
 H       -1.336916971    11.348207773     0.682258380
 H       -5.258371901     9.715360466    -0.269194709
 H       -4.300203794     7.481516612    -0.275121616
 H       -6.212606030    11.708336742     1.280688999
 H       -6.532903976    13.572833970    -1.203343412
 H       -8.661279454    14.169096429    -1.821761178
 H      -11.091220613    14.121503075    -1.549191058
 H      -10.645446208    11.351652242     1.745853111
 H       -8.222439111    11.552086344     1.568742692
 H      -14.142332247    11.745677247     1.139764454
 H      -12.690681715    11.858228638     2.151506002
 H      -12.781191561    10.623395280     0.851187489
 H      -14.569175642    15.905942227    -2.567292617
 H      -12.997053455    16.581500596    -3.031165881
 H      -14.085945043    17.511708050    -1.948189785
 H      -11.845056368    15.054366351     1.179501192
 H       -9.937491772    16.151163239     2.246618489
 H       -9.728202892    18.968624257    -1.002280320
 H      -11.692629553    17.953699027    -2.028686791
 H       -8.292294955    17.748785880     2.324856241
 H       -8.100962476    19.754025070    -0.061012856
 H       -8.803632186    21.810591381     1.590868954
 H       -9.091146808    24.226604087     1.704192140
 H       -4.845754616    24.754200642     2.176657336
 H       -4.509688288    22.351976023     2.057618089
 H       -8.278483405    26.401887708     1.922165046
 H       -5.219161283    26.740788430     2.253329204
 H       -8.652611393    28.388577384     2.003698251
 H       -8.988403175    30.790571380     2.113110978
 H       -4.693920255    31.330388138     2.566101126
 H       -4.406492541    28.917575600     2.464244691
 H      -12.668737239    13.291749911    -1.827344717
 H      -13.653093671    11.872157062    -1.392619933
 H      -15.034161568    13.921672630    -1.687054021
 H      -15.181508047    13.318734788    -0.028919931
 H      -14.950944532    15.796445000    -0.022830811
 H      -13.614366553    14.994301482     0.839535962
 H        2.262972720    -1.029811241    -0.040554532
 H        2.274964674     0.479162105     0.906452941
 H        2.261357856     0.543226088    -0.877257964
 H       -8.929458731    34.698695860     1.952906273
 H       -9.579438293    33.175486566     2.609306457
 H       -9.046329985    33.260545203     0.907951978
 H       -6.985920059    34.798535208     4.205861628
 C       -7.719717604    33.030668550     5.234447865
 C       -5.322571668    33.487248256     4.685201412
 H       -4.798470986    33.587822834     1.678551055
 C       -5.923521741    33.408091838    -0.167497380
 C       -5.858440285    35.441863810     1.296393537
 H       -6.154917020    18.252999801     3.386110618
 C       -4.865730489    19.824091231     4.151675353
 C       -7.353286692    19.750751184     4.410567551
 H       -3.986124506    20.166460200     1.238774190
 C       -4.524562582    18.131541762     0.704997417
 C       -4.907676343    20.154717115    -0.726507589
 H       -2.239678804    13.432857226     1.469674825
 C       -3.828931998    14.906110826     1.610606488
 C       -3.649227357    12.830250320     3.006337693
 H       -4.202028200    14.250095449    -1.441713472
 C       -2.146027763    13.566252967    -1.587658384
 C       -4.111419988    12.455250441    -2.665977539
 H       -1.780033601    -0.903074014    -1.446300541
 C       -0.295779685    -0.172568340    -2.849564030
 C       -0.190665066    -2.366529699    -1.641811903
 H       -0.110786623    -1.937672176     1.512753828
 C       -0.190904569    -0.230531182     2.854852507
 C       -2.133071716    -1.148674092     1.573571250
 H       -8.782238768    33.200968611     5.018324924
 H       -7.540213702    33.444510195     6.237125956
 H       -7.567299423    31.944888794     5.318255790
 H       -4.583194745    33.992539705     4.051121405
 H       -5.041259253    32.426908123     4.753689505
 H       -5.194513816    33.902904319     5.695407763
 H       -5.839124192    32.315800895    -0.260985942
 H       -5.111833008    33.831596571    -0.776039901
 H       -6.861991904    33.709698861    -0.651164681
 H       -5.708634140    35.874627348     2.293982060
 H       -6.798832235    35.842722653     0.895554476
 H       -5.056944439    35.847749195     0.662042460
 H       -3.969760552    19.510387259     3.601197243
 H       -4.781665658    19.378492111     5.153502645
 H       -4.807819527    20.911931485     4.296722607
 H       -8.332799299    19.431778373     4.028484610
 H       -7.414243465    20.831119214     4.605397265
 H       -7.231367001    19.267841458     5.390135241
 H       -4.364217992    17.711827023     1.706657813
 H       -3.599802594    17.946818059     0.139861583
 H       -5.309896437    17.536388304     0.215441701
 H       -5.092880901    21.235779334    -0.794699149
 H       -5.677211622    19.647431143    -1.324589128
 H       -3.951290183    19.975198148    -1.237548042
 H       -3.567791466    15.436149838     0.685337401
 H       -3.352581826    15.461706616     2.431086133
 H       -4.914615756    15.007180414     1.758193148
 H       -3.305353593    11.791113105     3.104406135
 H       -4.716513955    12.853011868     3.266539026
 H       -3.128269819    13.400163105     3.788640895
 H       -1.754394389    14.224137458    -0.801467269
 H       -1.956899952    14.081238425    -2.540751287
 H       -1.528008329    12.657694836    -1.605172647
 H       -5.187315598    12.232244643    -2.664274018
 H       -3.579447748    11.498531458    -2.768861635
 H       -3.913749207    13.017866856    -3.589018469
 H       -0.647304780     0.868938357    -2.875255822
 H       -0.767224128    -0.676518116    -3.705240358
 H        0.783176546    -0.162385768    -3.053051437
 H       -0.476452847    -2.973214177    -0.772870580
 H        0.894969608    -2.463300657    -1.774985398
 H       -0.651064264    -2.847724605    -2.516979743
 H        0.895055474    -0.106541417     2.954788837
 H       -0.512488581    -0.828536806     3.719564801
 H       -0.651618328     0.760289231     2.977864893
 H       -2.506937141    -1.711877586     0.709272197
 H       -2.700067337    -0.209102360     1.635813812
 H       -2.411384695    -1.732720300     2.462953980

