187   

Si        0.000000000     0.000000000     0.000000000
 C        1.865361121     0.000000000     0.000000000
 C       -0.682188180     1.709720254     0.000000000
 C        0.135780498     2.815542481    -0.251900808
 C       -0.394563455     4.105655536    -0.248783761
 C       -1.753388888     4.318867407    -0.003546587
 C       -2.572601517     3.209239062     0.245124228
 C       -2.045370676     1.920992764     0.248133828
 C       -2.352769546     5.649034988     0.009787987
 C       -1.683162521     6.793828755    -0.206955256
 C       -2.286235380     8.122494330    -0.192794634
 C       -1.471341903     9.236020211    -0.435108847
 C       -2.003228116    10.523313679    -0.431478560
 C       -3.364048759    10.727916535    -0.174658839
 C       -4.180308459     9.616909131     0.067439482
 C       -3.646778803     8.329327940     0.052917918
Si       -4.093585747    12.416008936    -0.163463906
 C       -5.483815608    12.553336750     1.017742513
 C       -5.583539908    11.838058684     2.145998416
 C       -6.695502381    11.946449114     3.092862032
 C       -6.681573950    11.138993856     4.241048098
 C       -7.708422706    11.202494459     5.168096193
 C       -8.773208825    12.107967570     4.984974014
 C       -8.793710253    12.912633059     3.836603567
 C       -7.773423806    12.812300707     2.896215049
 N       -9.790997693    12.120240236     5.972903379
 C       -9.344060810    12.509424088     7.325766722
 C      -11.068805541    12.729433019     5.574429553
 C       -9.311226060    14.017907125     7.628488233
 C       -8.243912878    14.805228851     6.845010930
 N       -6.863086759    14.658431833     7.331061155
 C       -6.616138566    14.882498980     8.690594678
 C       -7.355289125    15.868477712     9.382463036
 C       -7.123347777    16.102588201    10.727376131
 C       -6.124172092    15.407554591    11.424489721
 C       -5.374418509    14.453597348    10.731104932
 C       -5.604080129    14.192505063     9.386960907
 C       -6.083484819    13.612849060     6.657326113
 C       -5.923048856    15.695481461    12.844771595
 C       -5.002122843    15.096690967    13.612382731
Si       -4.753900883    15.459226098    15.386750746
 C       -6.318270572    15.983865407    16.201365412
 C       -7.533882973    15.422374536    15.788005222
 C       -8.729025710    15.804973675    16.390688151
 C       -8.739259898    16.746116299    17.428852913
 C       -7.524434625    17.297618296    17.845035588
 C       -6.325935290    16.919801613    17.240257045
 C      -10.017283249    17.114676093    18.028643222
 C      -10.168023678    18.004139783    19.024625987
 C      -11.446810050    18.371868781    19.623625118
 C      -12.661098579    17.820340156    19.207330709
 C      -13.860937670    18.201002431    19.808323445
 C      -13.870970868    19.139074016    20.845253582
 C      -12.654123856    19.693638814    21.265115928
 C      -11.459097844    19.315919647    20.659467468
Si      -15.446279572    19.651471496    21.648239183
 C      -16.845741167    18.498366690    21.210488379
 C      -15.178150238    19.673502100    23.532805850
 C      -15.901785708    21.410843377    21.082499403
 C       -4.120990374    13.881314457    16.240491139
 C       -3.432818259    16.817676547    15.558284866
 C       -2.772364136    13.700545525     0.309353575
 C       -4.742142595    12.814698365    -1.905874941
 C       -0.606830507    -0.925899361    -1.548682250
 C       -0.658280380    -0.902680941     1.541327618
 H        1.205577282     2.711210668    -0.452733988
 H        0.264587591     4.949869543    -0.442487604
 H       -3.633780715     3.353525549     0.439528068
 H       -2.732624863     1.095071785     0.452607048
 H       -3.427423528     5.663902731     0.215129836
 H       -0.609017445     6.780290547    -0.412906129
 H       -0.409958836     9.096754995    -0.630987786
 H       -1.319329134    11.352439167    -0.632063803
 H       -5.252276788     9.716910698     0.269671916
 H       -4.303322504     7.481283587     0.239414300
 H       -6.248218193    13.295610541     0.741783457
 H       -4.829014458    11.097745934     2.448473116
 H       -5.858737992    10.440497302     4.400039163
 H       -7.708319821    10.543735799     6.034509234
 H       -9.605053943    13.613892668     3.666693953
 H       -7.815392792    13.435966965     2.002410831
 H      -11.820026542    12.524085876     6.357268729
 H      -11.425237224    12.245621405     4.647293734
 H      -11.025858525    13.817097270     5.408690708
 H       -6.344887833    13.575791803     5.583159213
 H       -6.236943903    12.605524253     7.077466505
 H       -5.008794178    13.867107058     6.713797450
 H       -8.109214708    16.449837869     8.860719996
 H       -7.719569637    16.853630374    11.247682801
 H       -4.590958374    13.898855294    11.249613366
 H       -5.002099976    13.440327124     8.888307700
 H       -6.615070556    16.456587920    13.233352267
 H       -4.313826232    14.345301688    13.197776763
 H       -7.585808186    14.680076630    14.984209229
 H       -9.664316338    15.363911816    16.051727559
 H       -7.504576971    18.030061202    18.649693043
 H       -5.407941433    17.385408563    17.608953649
 H      -10.886340243    16.603564977    17.604016308
 H       -9.299843317    18.515808913    19.450334556
 H      -12.680521887    17.085057709    18.405096779
 H      -14.778637241    17.734744285    19.439463866
 H      -12.600589303    20.430694075    22.071368348
 H      -10.524242331    19.758509685    20.998256330
 H      -10.041156552    12.010628108     8.041816279
 H       -8.340390016    12.068881538     7.518362731
 H      -10.303477976    14.465762591     7.434620813
 H       -9.143455406    14.149789263     8.718823212
 H       -8.275900956    14.524352103     5.767295734
 H       -8.492559139    15.893634635     6.876265717
 H        2.262860201    -1.029992902     0.039063191
 H        2.262061595     0.541890499     0.877729564
 H        2.274469448     0.479998051    -0.906235320
 H      -17.777601999    18.788781127    21.727760495
 H      -16.611002840    17.460154081    21.507996190
 H      -17.053258412    18.499777347    20.126135351
 H      -14.355595727    20.423696771    23.719793069
 C      -16.417796644    20.126937474    24.324169602
 C      -14.706196021    18.312666301    24.076141208
 H      -16.893514322    21.640659586    21.569227623
 C      -14.892040721    22.482896167    21.530018860
 C      -16.084289932    21.511719338    19.556993529
 H       -3.161030097    13.606067782    15.715740251
 C       -3.809225161    14.084988824    17.733290668
 C       -5.101307932    12.704070019    16.090151641
 H       -3.282998952    16.972128118    16.665636836
 C       -2.076364468    16.423741127    14.946714476
 C       -3.887101774    18.153839517    14.943913155
 H       -1.963950215    13.622328968    -0.473772163
 C       -3.302338141    15.145387423     0.301558616
 C       -2.140650466    13.408131156     1.682187386
 H       -5.163369322    13.859899613    -1.852596643
 C       -3.639335982    12.797708272    -2.978558510
 C       -5.874013400    11.864697393    -2.336681959
 H       -0.102969066    -1.935045114    -1.516529558
 C       -2.128531353    -1.154898322    -1.576276331
 C       -0.190060640    -0.225917998    -2.855245365
 H       -1.782980817    -0.900223987     1.444273811
 C       -0.196712425    -2.367473146     1.639258100
 C       -0.298099349    -0.174419184     2.848973922
 H      -16.773942870    21.125653056    24.040407722
 H      -16.179446460    20.179323097    25.396586695
 H      -17.262836730    19.431891613    24.231946106
 H      -13.789825163    17.945890091    23.591758139
 H      -15.466487358    17.525933343    23.983116287
 H      -14.474976142    18.394206113    25.147824154
 H      -14.768456996    22.538033484    22.618958947
 H      -15.234880365    23.477771905    21.210132920
 H      -13.897206251    22.345099130    21.083348999
 H      -16.851781020    20.833191817    19.163173943
 H      -15.154564312    21.320360488    19.001996497
 H      -16.402666700    22.527553234    19.282084357
 H       -3.043424475    14.848959902    17.918538066
 H       -3.422696910    13.151630708    18.167648132
 H       -4.697599506    14.351672367    18.323688376
 H       -5.330538994    12.458172769    15.044297680
 H       -6.056141651    12.874589702    16.608044440
 H       -4.670197081    11.795273698    16.533352003
 H       -1.645319946    15.516440488    15.388418693
 H       -1.342126626    17.224845376    15.114839418
 H       -2.125302219    16.276944099    13.858458137
 H       -4.825341409    18.535185046    15.370031062
 H       -4.019795807    18.098593453    13.853337290
 H       -3.129384401    18.929372088    15.123264255
 H       -3.702106331    15.458540086    -0.671303054
 H       -2.486944666    15.845189414     0.536424843
 H       -4.081382565    15.319534948     1.057047544
 H       -1.685724030    12.410196288     1.750491684
 H       -2.857401709    13.501638354     2.511117669
 H       -1.335643513    14.127735017     1.888166576
 H       -2.835846604    13.521120497    -2.789990548
 H       -4.063899045    13.060003071    -3.958593540
 H       -3.176615956    11.807838243    -3.101770661
 H       -6.730976336    11.865618649    -1.649493765
 H       -5.538967103    10.823162515    -2.447887351
 H       -6.266102083    12.166273506    -3.318445510
 H       -2.499436972    -1.725585608    -0.715542545
 H       -2.404205773    -1.734664098    -2.469363970
 H       -2.700450910    -0.218048580    -1.632917941
 H        0.895211147    -0.095447410    -2.954262582
 H       -0.656344226     0.762317931    -2.977752733
 H       -0.507262687    -0.824723302    -3.721081390
 H       -0.479276868    -2.972149343     0.767853330
 H       -0.662107969    -2.849809218     2.511257788
 H        0.888162062    -2.466406899     1.777352344
 H       -0.647930319     0.867533521     2.875824940
 H        0.780685319    -0.166369259     3.053475506
 H       -0.771121504    -0.678738618     3.703683766

