187   

Si        0.000000000     0.000000000     0.000000000
 C        1.865052651     0.000000000     0.000000000
 C       -0.682941755     1.709457915     0.000000000
 C        0.109561047     2.801763762    -0.367074424
 C       -0.417024232     4.093312129    -0.363907663
 C       -1.746746977     4.321756353    -0.000507038
 C       -2.540975529     3.225692115     0.362261670
 C       -2.017978471     1.935577137     0.361232762
 C       -2.340785172     5.654392883     0.017637141
 C       -1.692440786     6.786382849    -0.305249134
 C       -2.287827792     8.118437322    -0.286640978
 C       -3.618184945     8.343904359     0.077294666
 C       -4.147343220     9.634120424     0.081372521
 C       -3.358915456    10.726442208    -0.293842540
 C       -2.025258081    10.503640559    -0.661480921
 C       -1.496767277     9.215708684    -0.652436467
Si       -4.031992910    12.437629987    -0.297234428
 C       -3.298719771    13.450903729    -1.632692220
 C       -2.872822313    12.949531790    -2.799647356
 C       -2.284787182    13.751710454    -3.874326660
 C       -1.877286254    13.103675391    -5.051306135
 C       -1.315410229    13.815156120    -6.097928427
 C       -1.180123199    15.215411078    -6.009635896
 C       -1.584175817    15.866254095    -4.835745455
 C       -2.110633621    15.133292169    -3.776507585
 N       -0.595317200    15.886800826    -7.118111573
 C       -1.377202655    15.762147602    -8.370031843
 C       -0.157979667    17.271359278    -6.865953108
 C       -2.825980777    16.274463134    -8.274959787
 C       -3.820920186    15.129164334    -7.997023252
 N       -5.070733510    15.574514723    -7.358210904
 C       -5.846168094    16.515517102    -8.055860109
 C       -5.907313218    16.462602317    -9.465912579
 C       -6.666512167    17.381923246   -10.170053382
 C       -7.429126995    18.354570066    -9.507035826
 C       -7.392337102    18.385627382    -8.110543651
 C       -6.623850989    17.481362709    -7.388823844
 C       -4.940911234    15.753061170    -5.903153522
 C       -8.212790943    19.301063970   -10.302173025
 C       -8.976598328    20.270107706    -9.780865703
Si       -9.971071018    21.473338240   -10.730672389
 C      -11.690140199    21.520189305   -10.077268002
 C      -12.172581271    20.482081441    -9.273673294
 C      -13.475807383    20.518098751    -8.778622228
 C      -14.326762345    21.583770869    -9.083647435
 C      -13.842573362    22.619445784    -9.894256478
 C      -12.540676784    22.589274546   -10.386698392
 C      -15.697036600    21.663557385    -8.588396700
 C      -16.282666112    20.741579447    -7.805524315
 C      -17.652940648    20.821478306    -7.310340587
 C      -18.502610726    21.889007689    -7.611489878
 C      -19.806136959    21.924968342    -7.116501618
 C      -20.290701289    20.888128791    -6.313006984
 C      -19.440707187    19.815815279    -6.009873331
 C      -18.138439594    19.785682790    -6.500783298
Si      -22.008681106    20.921782144    -5.652532765
 C      -23.056804518    22.189413877    -6.532286952
 C      -22.764601193    19.186866934    -5.858408031
 C      -21.962247135    21.343620326    -3.796879601
 C       -9.182963327    23.195627206   -10.544771888
 C      -10.016607004    21.017329543   -12.576623876
 C       -5.919028381    12.407839189    -0.536460979
 C       -3.636051977    13.258047754     1.371799500
 C       -0.619357500    -0.918755822    -1.547656259
 C       -0.651570953    -0.910792127     1.539886841
 H        1.156559749     2.685603807    -0.660510799
 H        0.221890908     4.926827073    -0.650013477
 H       -3.579467548     3.381508353     0.648345272
 H       -2.685597938     1.120151289     0.653521191
 H       -3.391059789     5.682371321     0.322687993
 H       -0.642193951     6.758746992    -0.610119065
 H       -4.254547788     7.509206359     0.365256474
 H       -5.192267375     9.747737530     0.382686915
 H       -1.361978916    11.321882508    -0.961907541
 H       -0.457383827     9.062194786    -0.936935116
 H       -3.242837453    14.528360529    -1.416504196
 H       -2.926584906    11.877904085    -3.040595189
 H       -1.992167830    12.022326403    -5.139194809
 H       -0.964166086    13.296990212    -6.987897008
 H       -1.490645450    16.943706684    -4.738581160
 H       -2.401457442    15.656414433    -2.864657953
 H        0.458251478    17.606624530    -7.718954210
 H        0.491448964    17.294059436    -5.973213497
 H       -0.979463479    17.991313786    -6.727486802
 H       -4.329538201    14.935232716    -5.476500734
 H       -5.939451125    15.681502733    -5.436092802
 H       -4.471948274    16.707343502    -5.615506263
 H       -5.355410732    15.700189778   -10.007780638
 H       -6.681385454    17.335952562   -11.259365563
 H       -7.977251658    19.130899477    -7.568815915
 H       -6.623143077    17.541874813    -6.305261069
 H       -8.118208056    19.136373800   -11.383666151
 H       -9.044356810    20.413934497    -8.689654037
 H      -11.553930271    19.618515164    -9.007397924
 H      -13.827243470    19.700947664    -8.151263143
 H      -14.489644551    23.457960122   -10.143703644
 H      -12.217157873    23.425381163   -11.012592631
 H      -16.246318400    22.555280514    -8.904220713
 H      -15.733802563    19.849159814    -7.490459906
 H      -18.151365190    22.706322079    -8.238687494
 H      -20.423348067    22.786366258    -7.386124046
 H      -19.764950824    18.977198659    -5.387263057
 H      -17.492855524    18.945026402    -6.253431782
 H       -0.829006084    16.312383849    -9.167526790
 H       -1.356784628    14.692511464    -8.677408276
 H       -2.907594872    17.042881211    -7.482504473
 H       -3.111385621    16.796842299    -9.207021171
 H       -4.075987984    14.599049804    -8.942153995
 H       -3.356977286    14.356771303    -7.339653395
 H        2.262504708    -1.028993831     0.060227495
 H        2.260555640     0.559921805     0.867066707
 H        2.275776761     0.461882125    -0.914778220
 H      -24.097696335    22.171056219    -6.162854167
 H      -23.087197249    21.991828205    -7.619299926
 H      -22.670290904    23.213245134    -6.386381402
 H      -22.110451100    18.491060629    -5.256371120
 C      -24.199277129    19.073232172    -5.312919409
 C      -22.744136711    18.704660405    -7.320172259
 H      -23.040585401    21.402857002    -3.470203040
 C      -21.262527272    20.273825568    -2.939538243
 C      -21.303360965    22.707155312    -3.518395586
 H       -9.810948128    23.893862061   -11.170174932
 C       -9.212584510    23.703660949    -9.092196110
 C       -7.737523711    23.255607798   -11.069022822
 H       -8.939518776    20.900063404   -12.892419335
 C      -10.741021948    19.682941430   -12.832335211
 C      -10.655059652    22.102109165   -13.462419915
 H       -6.334943616    11.812713399     0.327047924
 C       -6.557477700    13.807882570    -0.498980059
 C       -6.329558357    11.708331504    -1.844589197
 H       -4.075655402    14.295834103     1.323120931
 C       -4.268914033    12.526099947     2.567892081
 C       -2.121252191    13.391194445     1.610554409
 H       -0.137912958    -1.938522735    -1.511559784
 C       -2.146090771    -1.112528060    -1.574962997
 C       -0.185668893    -0.232190716    -2.855773044
 H       -1.775943290    -0.922814543     1.440462035
 C       -0.172968552    -2.370273042     1.638127124
 C       -0.302099369    -0.179683938     2.848787281
 H      -24.283446578    19.338542155    -4.251153082
 H      -24.551886945    18.035068957    -5.398786685
 H      -24.918892442    19.688144497    -5.869457920
 H      -21.737913695    18.705635726    -7.763420143
 H      -23.394898360    19.296942694    -7.976979008
 H      -23.104895275    17.667979947    -7.380479424
 H      -21.728118453    19.282936741    -3.013081207
 H      -21.308250783    20.555369512    -1.877347321
 H      -20.195674255    20.164654799    -3.180704565
 H      -21.796059491    23.542954847    -4.031514618
 H      -20.238425296    22.730277175    -3.791303397
 H      -21.350374692    22.935968935    -2.444042897
 H      -10.223661169    23.731748889    -8.661791176
 H       -8.830880795    24.733397229    -9.045278966
 H       -8.580703564    23.109539343    -8.417891449
 H       -7.647684056    22.987693487   -12.129582665
 H       -7.050668629    22.609505769   -10.503574312
 H       -7.344979772    24.278142624   -10.975636847
 H      -10.323578391    18.839363258   -12.265428140
 H      -10.665859919    19.409454747   -13.893992750
 H      -11.815280888    19.731412398   -12.602066048
 H      -10.137322996    23.068191524   -13.410522209
 H      -11.715486476    22.274402493   -13.230497871
 H      -10.620665659    21.793001040   -14.517295317
 H       -6.374391404    14.345939007     0.439760308
 H       -7.649943709    13.724208647    -0.594544002
 H       -6.226089865    14.451269420    -1.326056520
 H       -5.957546395    10.677449881    -1.924923528
 H       -5.996394354    12.249996713    -2.742131730
 H       -7.424902811    11.645220236    -1.911509043
 H       -5.364078363    12.474948465     2.518128791
 H       -4.028932129    13.054508140     3.502145060
 H       -3.891219695    11.500817960     2.691760142
 H       -1.602113826    13.953516439     0.822612875
 H       -1.617857459    12.418596546     1.711185361
 H       -1.933611285    13.931536842     2.549417885
 H       -2.528433648    -1.682313960    -0.718640297
 H       -2.436780286    -1.677529494    -2.472648387
 H       -2.696500345    -0.162119559    -1.621041057
 H        0.902390284    -0.126499450    -2.953535428
 H       -0.630169954     0.765543423    -2.981928677
 H       -0.514914801    -0.826580444    -3.720160059
 H       -0.443875199    -2.977008811     0.764491445
 H       -0.636952805    -2.859354701     2.507068486
 H        0.912302396    -2.456225866     1.781631867
 H       -0.662243550     0.858745589     2.875586454
 H        0.776285930    -0.160643111     3.055135012
 H       -0.771265697    -0.689477222     3.702314633

