187   

Si        0.000000000     0.000000000     0.000000000
 C        1.865138233     0.000000000     0.000000000
 C       -0.678363676     1.711419175     0.000000000
 C        0.123240553     2.804933758    -0.342648744
 C       -0.400809127     4.097486490    -0.339398789
 C       -1.737101427     4.325848195    -0.001014039
 C       -2.540398152     3.228577640     0.337461596
 C       -2.019806243     1.937476768     0.337147578
 C       -2.328518887     5.659663399     0.016093876
 C       -1.670944905     6.792434797    -0.284410292
 C       -2.263181281     8.125914729    -0.267043868
 C       -3.599929496     8.352185345     0.071689736
 C       -4.125520877     9.643954039     0.075442811
 C       -3.327455946    10.737493175    -0.273883595
 C       -1.987028043    10.513085750    -0.615950875
 C       -1.461904703     9.223907402    -0.607364599
Si       -3.991249656    12.452307122    -0.278522281
 C       -3.230380457    13.470009306    -1.597150846
 C       -2.794440415    12.952618287    -2.753457503
 C       -2.180522430    13.727068447    -3.834418641
 C       -1.772136738    13.043649361    -4.990017038
 C       -1.185114480    13.721552898    -6.046426906
 C       -0.991791664    15.111734637    -5.965879022
 C       -1.376798636    15.797841318    -4.809099720
 C       -1.947685967    15.101839685    -3.747094606
 N       -0.378456043    15.728802702    -7.103136181
 C       -1.326657220    15.885561568    -8.230719110
 C        0.367254565    16.964342888    -6.805265452
 C       -2.399867673    16.972323926    -8.024233146
 C       -3.805660170    16.545723713    -8.486954314
 N       -4.591657002    15.762319034    -7.511224108
 C       -4.675182996    16.283438222    -6.205437059
 C       -4.715988387    17.681319153    -6.010811805
 C       -4.798121389    18.209431717    -4.732883191
 C       -4.879994384    17.377492508    -3.607677630
 C       -4.883933285    15.994329493    -3.805286729
 C       -4.809004348    15.448986483    -5.079974964
 C       -4.380649541    14.308875377    -7.623056379
 C       -4.964607768    17.992697513    -2.283369291
 C       -5.046962044    17.307350953    -1.134969196
Si       -5.151948851    18.095735685     0.510951096
 C       -5.988525657    19.730688395     0.443232078
 C       -7.012304790    19.947097233    -0.486660705
 C       -7.659284367    21.179661341    -0.554151678
 C       -7.307960234    22.218845950     0.312490635
 C       -6.288872607    21.997483203     1.247849894
 C       -5.637514887    20.767988641     1.314919252
 C       -7.958059099    23.524876982     0.277477868
 C       -8.945453829    23.863892133    -0.568741008
 C       -9.597460361    25.168629801    -0.606328179
 C       -9.247395186    26.211900555     0.254705576
 C       -9.897666292    27.443832466     0.183786191
 C      -10.908433360    27.661620385    -0.757645620
 C      -11.260680219    26.617105114    -1.623100503
 C      -10.614918402    25.386421956    -1.545159713
Si      -11.776301658    29.281680898    -0.864103441
 C      -10.874015348    30.607746632     0.088342264
 C      -11.911967499    29.767776113    -2.699625273
 C      -13.533980571    29.105380725    -0.155236782
 C       -6.113177566    16.940203267     1.675506130
 C       -3.376819807    18.294279734     1.171584318
 C       -5.869565047    12.383091890    -0.593648201
 C       -3.673790631    13.293808519     1.393142561
 C       -0.617350040    -0.918715570    -1.548366349
 C       -0.654463013    -0.908512023     1.539630489
 H        1.175624278     2.689132941    -0.616292203
 H        0.245479590     4.931960573    -0.605609360
 H       -3.584029921     3.384324608     0.604215603
 H       -2.694373269     1.121273181     0.610733968
 H       -3.384629863     5.687985010     0.300078484
 H       -0.614732342     6.764694543    -0.568065755
 H       -4.244325378     7.517117049     0.340017198
 H       -5.176028235     9.756873588     0.356762288
 H       -1.315075745    11.332001407    -0.895537608
 H       -0.417262806     9.069900042    -0.871861174
 H       -3.158979991    14.547568421    -1.383968136
 H       -2.861928595    11.879006829    -2.984271660
 H       -1.915975160    11.965234640    -5.060226986
 H       -0.852494778    13.187134362    -6.934278094
 H       -1.237596970    16.872650258    -4.729954002
 H       -2.234855377    15.651780691    -2.848656910
 H        0.957693427    17.237437180    -7.697045863
 H        1.080909382    16.766287805    -5.986155856
 H       -0.256541483    17.826549150    -6.525101948
 H       -4.298047267    14.016674646    -8.681904419
 H       -5.266081312    13.786839293    -7.215223054
 H       -3.482178654    13.951689875    -7.088976407
 H       -4.684539968    18.352115663    -6.863963830
 H       -4.809875252    19.292733883    -4.605809595
 H       -4.956022039    15.318110224    -2.950110509
 H       -4.817339437    14.367740773    -5.184714043
 H       -4.963920403    19.091678941    -2.319478509
 H       -5.035398763    16.207122127    -1.121890292
 H       -7.333714328    19.168669413    -1.187606020
 H       -8.447488413    21.325316866    -1.290692719
 H       -6.000547328    22.793134425     1.932093325
 H       -4.850540978    20.654113550     2.065187608
 H       -7.580758537    24.243886011     1.010327943
 H       -9.322185820    23.143353322    -1.300915862
 H       -8.460472670    26.069687983     0.993151560
 H       -9.581272533    28.221053228     0.884983376
 H      -12.042883884    26.729546219    -2.379177238
 H      -10.904054728    24.586561139    -2.224288262
 H       -0.720991111    16.110046543    -9.136700402
 H       -1.800384555    14.896246822    -8.414848873
 H       -2.437075064    17.259806513    -6.951981874
 H       -2.105052527    17.894164629    -8.557712896
 H       -4.407491865    17.455280440    -8.728748784
 H       -3.742194294    15.972517308    -9.437632896
 H        2.262764239    -1.029668752     0.045887717
 H        2.260699301     0.547850514     0.874705958
 H        2.275482619     0.474451640    -0.908510449
 H      -11.380163289    31.584407686    -0.012998306
 H       -9.840762788    30.729346643    -0.284498876
 H      -10.818432271    30.372475861     1.165597943
 H      -12.510305238    28.947504440    -3.193141098
 C      -12.654975638    31.095711037    -2.930054623
 C      -10.540148881    29.832975341    -3.395043489
 H      -13.986176280    30.138209293    -0.201689234
 C      -14.433554160    28.155493919    -0.966027603
 C      -13.534753806    28.649876191     1.315491886
 H       -5.599627704    15.936313809     1.613907532
 C       -6.084964900    17.395227591     3.144731739
 C       -7.577202208    16.759207891     1.236705381
 H       -3.474152602    18.750963416     2.197933096
 C       -2.624768450    16.959657116     1.313996915
 C       -2.539057554    19.246891213     0.299557503
 H       -6.292084783    11.737170832     0.229451675
 C       -6.571205582    13.748633940    -0.526490484
 C       -6.203400888    11.721153122    -1.942923073
 H       -4.069082280    14.347224880     1.289277794
 C       -4.413017137    12.623956641     2.563747300
 C       -2.174009659    13.377890478     1.728026682
 H       -0.131768559    -1.936718829    -1.513579291
 C       -2.143161228    -1.119636037    -1.575670194
 C       -0.186771765    -0.229221420    -2.855928047
 H       -1.778942304    -0.916044026     1.440092841
 C       -0.181658792    -2.369960984     1.637164044
 C       -0.302337526    -0.179002359     2.848650458
 H      -13.675298793    31.098847586    -2.525272052
 H      -12.751988964    31.289052173    -4.008368107
 H      -12.125692679    31.961361184    -2.510145064
 H       -9.970956327    28.895251357    -3.320137137
 H       -9.901473535    30.639004733    -3.010059142
 H      -10.670383294    30.027707384    -4.469105248
 H      -14.562873051    28.464177877    -2.011080768
 H      -15.442044129    28.128347001    -0.527969368
 H      -14.071734539    27.117564006    -0.962232073
 H      -12.981771372    29.324536427     1.981669573
 H      -13.123542911    27.638905466     1.449579229
 H      -14.564627421    28.615952117     1.698988175
 H       -5.072190697    17.452983933     3.563576502
 H       -6.635576604    16.678688683     3.771386331
 H       -6.567791726    18.370191210     3.301171429
 H       -7.683686873    16.389940566     0.207083951
 H       -8.163440959    17.686232858     1.315522043
 H       -8.078473059    16.025758796     1.883778849
 H       -3.115848756    16.254684451     1.997922519
 H       -1.621599967    17.136048123     1.727843635
 H       -2.474150522    16.447712299     0.352595414
 H       -2.978451032    20.249007222     0.200965426
 H       -2.370491775    18.859233855    -0.716065335
 H       -1.544904402    19.391842616     0.744629509
 H       -6.437843667    14.259076869     0.436754244
 H       -7.655919163    13.620833001    -0.655208699
 H       -6.251571414    14.434906032    -1.323606018
 H       -5.797519534    10.705588984    -2.045315491
 H       -5.850659951    12.306216172    -2.805095535
 H       -7.292288348    11.627603553    -2.058745341
 H       -5.503985287    12.616326452     2.443115351
 H       -4.212063347    13.168757686     3.497774333
 H       -4.089249153    11.588534007     2.740235110
 H       -1.585397062    13.907166873     0.965830901
 H       -1.712784804    12.391055927     1.876501552
 H       -2.026320363    13.926833295     2.668956599
 H       -2.521645103    -1.695952641    -0.721993102
 H       -2.431815806    -1.681241158    -2.476127590
 H       -2.698398508    -0.171867154    -1.616295679
 H        0.901088424    -0.122618922    -2.955277785
 H       -0.631934306     0.768602961    -2.979060639
 H       -0.517217762    -0.821807171    -3.721043373
 H       -0.460980350    -2.976421881     0.765964031
 H       -0.642286834    -2.855845699     2.509664797
 H        0.904079555    -2.460830580     1.773842786
 H       -0.658657135     0.860776736     2.875456415
 H        0.776097342    -0.164042428     3.055053250
 H       -0.773543970    -0.686989052     3.702122069

