187   

Si        0.000000000     0.000000000     0.000000000
 C        1.864914444     0.000000000     0.000000000
 C       -0.686588489     1.707835732     0.000000000
 C        0.073365054     2.792126230     0.450420316
 C       -0.458004568     4.081954895     0.445588137
 C       -1.760041352     4.316191148    -0.003895723
 C       -2.522269327     3.227754124    -0.449176902
 C       -1.995210688     1.939524381    -0.444597554
 C       -2.361088554     5.645192973    -0.028797815
 C       -1.750483101     6.774918705     0.367378617
 C       -2.364333327     8.098698940     0.336931330
 C       -1.621149640     9.200773644     0.778307537
 C       -2.169088863    10.481831347     0.765997710
 C       -3.469500233    10.692673246     0.294461836
 C       -4.213003540     9.592654649    -0.150804350
 C       -3.666986288     8.311049635    -0.124527313
Si       -4.238688804    12.363972096     0.257323269
 C       -5.272717674    12.577812335    -1.235732998
 C       -5.027070533    11.964430180    -2.401598872
 C       -5.841149161    12.121725066    -3.606954850
 C       -5.473364282    11.420727361    -4.765003938
 C       -6.207073115    11.531974872    -5.933847455
 C       -7.381659534    12.315510078    -5.969271540
 C       -7.753415321    13.016405566    -4.806179023
 C       -6.977354344    12.932970526    -3.656832611
 N       -8.115085016    12.418133247    -7.163683390
 C       -8.138579050    11.234108934    -8.039446025
 C       -9.412842018    13.109797893    -7.099202478
 C       -8.709678473     9.973173732    -7.359389138
 C       -9.235517476     8.958176073    -8.390297816
 N      -10.694578571     9.028743376    -8.635422706
 C      -11.136845673    10.306800429    -9.075304571
 C      -10.655072360    10.765561526   -10.317738615
 C      -11.048102744    12.001982525   -10.802262094
 C      -11.952242979    12.803589969   -10.087646380
 C      -12.444956142    12.332708075    -8.869025521
 C      -12.053069453    11.095986913    -8.366424127
 C      -11.477068500     8.426821609    -7.541257292
 C      -12.334632979    14.103068395   -10.645495464
 C      -13.186738390    14.949330430   -10.053307960
Si      -13.699749332    16.580437952   -10.701183860
 C      -15.532844024    16.715740106   -10.669053526
 C      -16.325606516    15.563093957   -10.611221440
 C      -17.714415470    15.664279509   -10.586830497
 C      -18.343544103    16.915214911   -10.630750338
 C      -17.548515788    18.063415810   -10.695008768
 C      -16.157942122    17.966569546   -10.715019836
 C      -19.801477554    16.968345763   -10.602723726
 C      -20.527781687    18.098525965   -10.634680477
 C      -21.985837698    18.149654278   -10.606568009
 C      -22.779095938    17.001302749   -10.542340023
 C      -24.170493721    17.095935185   -10.517419973
 C      -24.799407166    18.344390710   -10.550312411
 C      -24.005853592    19.497937197   -10.614287332
 C      -22.617612967    19.400045715   -10.644418380
Si      -26.634659152    18.485906353   -10.518054346
 C      -27.439308850    16.871106002   -10.044243361
 C      -27.107854580    19.846465615    -9.273675827
 C      -27.259763740    18.998065699   -12.241489247
 C      -12.940086977    17.924693235    -9.588922422
 C      -13.084506208    16.839669760   -12.481270685
 C       -5.341925708    12.569124197     1.793170873
 C       -2.900639806    13.715941769     0.282662697
 C       -0.645015777    -0.919478406    -1.537945868
 C       -0.623358636    -0.915034341     1.548329073
 H        1.098175112     2.670671026     0.811930073
 H        0.154799250     4.909627076     0.797965182
 H       -3.539279898     3.388084837    -0.802041634
 H       -2.638650167     1.130452242    -0.801403481
 H       -3.388068826     5.672944302    -0.406015700
 H       -0.724767974     6.752051287     0.745653099
 H       -0.604772539     9.057832966     1.139709089
 H       -1.544790146    11.301646091     1.131133192
 H       -5.234767529     9.698659926    -0.531821556
 H       -4.266857583     7.472193575    -0.472533466
 H       -6.118008812    13.271496476    -1.119950371
 H       -4.182489802    11.273391129    -2.540602003
 H       -4.585619723    10.786663642    -4.751507345
 H       -5.871880284    11.009062233    -6.824722421
 H       -8.644632188    13.635241802    -4.792497648
 H       -7.277778129    13.500394673    -2.774946522
 H       -9.880865357    13.128711254    -8.101408374
 H       -9.250536869    14.161640872    -6.802866644
 H      -10.127924574    12.642178291    -6.403949426
 H      -11.175981097     7.369658305    -7.433875848
 H      -12.547598629     8.429008266    -7.811771935
 H      -11.355024829     8.922851928    -6.565849664
 H       -9.981705909    10.137204773   -10.897174450
 H      -10.658954195    12.349242696   -11.759829493
 H      -13.153618699    12.934504142    -8.297675452
 H      -12.452796360    10.761115576    -7.413739112
 H      -11.853891586    14.318654567   -11.608515022
 H      -13.648734274    14.704604847    -9.081729064
 H      -15.889407879    14.559317407   -10.581231475
 H      -18.315431231    14.758165139   -10.536421782
 H      -18.012561353    19.047256196   -10.730455909
 H      -15.588480811    18.898814534   -10.764175170
 H      -20.293288337    15.992340636   -10.552113686
 H      -20.036648434    19.074682279   -10.685621628
 H      -22.314555218    16.017367351   -10.511805856
 H      -24.737488858    16.162198939   -10.467837961
 H      -24.442006067    20.500523265   -10.641785277
 H      -22.018379763    20.307141044   -10.695913526
 H       -8.730931350    11.490634151    -8.948807412
 H       -7.103640926    11.044283027    -8.403440076
 H       -7.933015852     9.508514326    -6.723475057
 H       -9.517098144    10.258861489    -6.658326113
 H       -8.720901066     9.087438068    -9.368821894
 H       -8.997508135     7.921350390    -8.062188931
 H        2.262330240    -1.029622962    -0.046890301
 H        2.276560821     0.474429329     0.907887977
 H        2.259476551     0.548932325    -0.874555759
 H      -28.537378087    16.976248837    -9.984318166
 H      -27.084819988    16.526848251    -9.055680060
 H      -27.221352803    16.074512266   -10.776960367
 H      -26.624481163    20.793778953    -9.652282989
 C      -28.623993197    20.095050384    -9.183258023
 C      -26.559446353    19.570111276    -7.862034115
 H      -28.385619391    19.008549833   -12.166432843
 C      -26.798490398    20.401368594   -12.673911511
 C      -26.863751795    17.989988232   -13.335862634
 H      -13.243539849    18.912038284   -10.043092682
 C      -13.484933563    17.876429691    -8.150353987
 C      -11.402956854    17.871008232    -9.546151036
 H      -11.972858726    16.646525388   -12.456796662
 C      -13.723414932    15.849626161   -13.472179379
 C      -13.306338625    18.271034773   -13.001560042
 H       -5.781737378    13.605800720     1.723991633
 C       -6.503315438    11.559147939     1.819006125
 C       -4.561700359    12.467395110     3.115412736
 H       -2.302617936    13.547243241     1.224280118
 C       -1.944230962    13.613967802    -0.919209548
 C       -3.479701546    15.141107774     0.337757969
 H       -1.769625437    -0.934686973    -1.442018689
 C       -0.293386441    -0.193865822    -2.849329162
 C       -0.162545986    -2.378310331    -1.627799860
 H       -0.146667279    -1.936976452     1.514039689
 C       -0.188337556    -0.228712346     2.856061744
 C       -2.151137153    -1.101165997     1.572758108
 H      -29.077827646    20.369215495   -10.144374685
 H      -28.826812491    20.931349108    -8.498373033
 H      -29.176485485    19.233182495    -8.786193388
 H      -25.468250213    19.437700569    -7.838725272
 H      -27.009831698    18.685914956    -7.391841657
 H      -26.779699041    20.418950067    -7.199014931
 H      -27.116104925    21.195759695   -11.986758927
 H      -27.230883958    20.653004120   -13.653408157
 H      -25.708377390    20.473951186   -12.794189133
 H      -27.229535244    16.972797380   -13.145615178
 H      -25.776385988    17.929577343   -13.487647017
 H      -27.292250449    18.294494579   -14.301544566
 H      -14.580410780    17.950142405    -8.096582056
 H      -13.092930653    18.724533756    -7.570778494
 H      -13.185793920    16.968663708    -7.608865470
 H      -10.935727477    17.988615164   -10.532481249
 H      -11.018242347    16.940511199    -9.104275170
 H      -11.015043169    18.690380532    -8.923890926
 H      -13.578473234    14.795799241   -13.198188777
 H      -13.278505815    15.973507915   -14.469605469
 H      -14.804499543    16.009736005   -13.595952450
 H      -12.793267776    19.036285146   -12.405308459
 H      -14.369029828    18.545699335   -13.060900910
 H      -12.910771675    18.364130549   -14.023694185
 H       -7.142286820    11.606192127     0.926652072
 H       -7.158474912    11.759863114     2.678444934
 H       -6.162389632    10.519656287     1.929551395
 H       -3.768635159    13.219751636     3.212809855
 H       -4.105262219    11.478867935     3.268035410
 H       -5.240527030    12.625206804     3.965959394
 H       -1.444812542    12.638782375    -1.000591180
 H       -1.145213922    14.363311366    -0.831155002
 H       -2.444679127    13.807855918    -1.879456505
 H       -4.113377448    15.320962473     1.215388912
 H       -4.063522430    15.399518950    -0.556906801
 H       -2.663605329    15.875952299     0.393659860
 H       -0.654201097     0.844156932    -2.881617996
 H       -0.759607886    -0.707892655    -3.701826637
 H        0.785547265    -0.174608098    -3.052938894
 H       -0.441282806    -2.983058655    -0.755197187
 H        0.924195227    -2.462942471    -1.760262355
 H       -0.616958685    -2.870474746    -2.499984137
 H        0.900191664    -0.130434209     2.956162644
 H       -0.523872022    -0.819183676     3.720756239
 H       -0.626582754     0.772225831     2.979153870
 H       -2.533998317    -1.672481992     0.717713007
 H       -2.697069402    -0.147782674     1.612676767
 H       -2.447105774    -1.660908223     2.471957845

