187   

Si        0.000000000     0.000000000     0.000000000
 C        1.865246586     0.000000000     0.000000000
 C       -0.665476627     1.716838155     0.000000000
 C        0.076969442     2.760848464    -0.562740467
 C       -0.420307890     4.063418996    -0.566479513
 C       -1.671851436     4.352356635    -0.015494214
 C       -2.417214470     3.304662296     0.540851620
 C       -1.923417259     2.002529188     0.545744399
 C       -2.230359817     5.700463617     0.001836966
 C       -1.616944326     6.786379258    -0.498333133
 C       -2.169230876     8.136690662    -0.484423601
 C       -3.419182694     8.435750334     0.063894550
 C       -3.907270400     9.742400125     0.054947394
 C       -3.161178453    10.775569200    -0.520017842
 C       -1.908658093    10.477931207    -1.074341755
 C       -1.418539369     9.175445414    -1.051425483
Si       -3.769180137    12.511888969    -0.552267249
 C       -3.280780938    13.356643982    -2.099053565
 C       -3.112458559    12.724805915    -3.268787010
 C       -2.722307372    13.383035717    -4.515861055
 C       -2.579929349    12.604200116    -5.673869563
 C       -2.212907295    13.174395877    -6.880821703
 C       -2.020586726    14.569973850    -6.984088568
 C       -2.164199628    15.352105148    -5.822418513
 C       -2.487251023    14.756847953    -4.609159668
 N       -1.648098121    15.131539374    -8.217278906
 C       -2.170247485    14.489637149    -9.434739006
 C       -1.620222482    16.599484360    -8.311517017
 C       -3.705875832    14.542925541    -9.542537031
 C       -4.236381066    13.645874852   -10.673849747
 N       -3.957792602    14.120645107   -12.042778510
 C       -2.610397598    14.056299823   -12.461756646
 C       -1.899289888    12.853608920   -12.260525852
 C       -0.577028493    12.748325970   -12.656460910
 C        0.070684442    13.809725921   -13.307647158
 C       -0.644633915    14.987279789   -13.532698422
 C       -1.968194358    15.115108300   -13.124946377
 C       -4.696995068    15.347229985   -12.381791018
 C        1.469956886    13.642316222   -13.703638177
 C        2.194273588    14.579764092   -14.329345752
Si        3.942595795    14.360641637   -14.820028455
 C        4.332530395    12.602223791   -15.192787866
 C        3.353081397    11.779801569   -15.761715129
 C        3.629839322    10.444771784   -16.051273400
 C        4.892637481     9.904524532   -15.791536591
 C        5.873953987    10.731820599   -15.230076369
 C        5.599528021    12.065287891   -14.935857449
 C        5.227049867     8.513453774   -16.078171666
 C        4.380429835     7.618281450   -16.614399710
 C        4.714016681     6.227067048   -16.901349319
 C        5.974423777     5.684263842   -16.638860492
 C        6.250244988     4.348157478   -16.929203360
 C        5.266431877     3.522672397   -17.482226193
 C        4.000816241     4.064344944   -17.745257629
 C        3.730537682     5.399824901   -17.460349761
Si        5.613967717     1.757234839   -17.871340630
 C        7.212697615     1.185877194   -17.098540485
 C        4.160791925     0.709146675   -17.228365866
 C        5.733143922     1.534216484   -19.757964122
 C        4.266694662    15.401917027   -16.378314149
 C        5.052443960    14.998932976   -13.412805680
 C       -5.664500428    12.556480353    -0.394984172
 C       -3.012640786    13.454023118     0.916958537
 C       -0.631107001    -0.902533323    -1.552186020
 C       -0.649055894    -0.924397866     1.532538275
 H        1.062307122     2.597503297    -1.008321563
 H        0.179405910     4.858231642    -1.006497167
 H       -3.394921059     3.507157159     0.973934299
 H       -2.551601640     1.226508477     0.991463482
 H       -3.218078454     5.781616835     0.464316323
 H       -0.628583652     6.702514838    -0.960486682
 H       -4.023032403     7.647126787     0.508433222
 H       -4.887388644     9.916062967     0.507002651
 H       -1.282102823    11.247719467    -1.538394119
 H       -0.442109270     8.963797341    -1.483394094
 H       -3.146918666    14.444564657    -2.010897124
 H       -3.248843776    11.638960785    -3.380233475
 H       -2.748164500    11.527411644    -5.622465150
 H       -2.074791118    12.537778555    -7.750497098
 H       -2.019077095    16.426579003    -5.855422571
 H       -2.574725512    15.383796472    -3.720704741
 H       -1.273513947    16.901470747    -9.315169543
 H       -0.884277352    16.997231989    -7.588762746
 H       -2.598246590    17.070755056    -8.125128813
 H       -5.758075835    15.221284976   -12.104984090
 H       -4.667981697    15.498179084   -13.476102498
 H       -4.314010418    16.253701891   -11.886847453
 H       -2.393258795    12.002999815   -11.797108650
 H       -0.036383744    11.818384742   -12.472565618
 H       -0.165085282    15.827096895   -14.037226560
 H       -2.486692086    16.049230128   -13.313814045
 H        1.877299312    12.654982538   -13.441254345
 H        1.767826781    15.563966483   -14.573842398
 H        2.347557771    12.148574049   -15.991882909
 H        2.849196202     9.823757616   -16.486927309
 H        6.863743611    10.331019369   -15.020439110
 H        6.405033272    12.661822036   -14.499131914
 H        6.250808390     8.226505239   -15.820869970
 H        3.356589089     7.905417382   -16.871893534
 H        6.756344848     6.304355081   -16.204203661
 H        7.255205508     3.981089385   -16.703160542
 H        3.192613764     3.466567224   -18.176064617
 H        2.742175605     5.802796745   -17.673384062
 H       -1.699178849    14.981057792   -10.318253148
 H       -1.808876613    13.435871271    -9.464250922
 H       -4.155403515    14.215358906    -8.582505205
 H       -4.039582979    15.585680514    -9.684200256
 H       -3.831837069    12.613828180   -10.565048675
 H       -5.343071272    13.542635385   -10.577617984
 H        2.263572928    -1.028469521     0.061175053
 H        2.258761562     0.561430670     0.867194310
 H        2.277279153     0.462374607    -0.913758723
 H        7.389791460     0.113661099   -17.296827812
 H        7.193211497     1.321254299   -16.001847177
 H        8.080047277     1.744301168   -17.492121723
 H        3.245707237     1.081603830   -17.774588867
 C        4.307954707    -0.793537615   -17.526465479
 C        3.918537056     0.900188932   -15.720187224
 H        6.011460194     0.452641542   -19.919302118
 C        4.409588648     1.800371910   -20.496996013
 C        6.833180538     2.409118019   -20.386750625
 H        4.025515580    16.467716736   -16.098266146
 C        5.731818966    15.349688309   -16.845072271
 C        3.353602813    14.996865381   -17.549402808
 H        6.114753905    14.888753099   -13.776245630
 C        4.816533255    16.483229794   -13.080566187
 C        4.896296545    14.168829732   -12.126131281
 H       -5.909791777    12.048005315     0.581810656
 C       -6.235490898    13.984976033    -0.341860581
 C       -6.363333795    11.783101200    -1.527710324
 H       -3.418484710    14.504811880     0.855453770
 C       -3.411896392    12.865601830     2.281371900
 C       -1.477421207    13.529354944     0.834601654
 H       -0.165997502    -1.929841988    -1.522237873
 C       -2.161062547    -1.070533648    -1.575761878
 C       -0.189008884    -0.216375021    -2.857626381
 H       -1.774483930    -0.919624334     1.444544428
 C       -0.191009820    -2.392335913     1.602737889
 C       -0.275006748    -0.220487307     2.849589121
 H        4.415499251    -1.016343641   -18.595880704
 H        3.410394862    -1.332355422   -17.189428614
 H        5.156098940    -1.253246123   -17.001996226
 H        3.748680703     1.949053164   -15.437469080
 H        4.742219838     0.520237054   -15.101393775
 H        3.019063648     0.349498110   -15.409991829
 H        3.586276718     1.156356108   -20.163136651
 H        4.534424070     1.604631197   -21.572082410
 H        4.077134442     2.844706965   -20.413843878
 H        7.831369812     2.221836944   -19.970544474
 H        6.629426451     3.485410012   -20.290996770
 H        6.906804778     2.204983592   -21.464586388
 H        6.441924343    15.718654547   -16.094017884
 H        5.866894521    15.984511166   -17.732814605
 H        6.051483190    14.339981642   -17.140627715
 H        2.283124774    15.065224335   -17.312443148
 H        3.549161672    13.976598613   -17.910201233
 H        3.522658745    15.662704279   -18.407525953
 H        4.984575314    17.153159070   -13.933265720
 H        5.514237410    16.807107275   -12.294602967
 H        3.806947319    16.678868049   -12.692946370
 H        5.106577104    13.099502815   -12.267084961
 H        3.892630104    14.251468465   -11.683491888
 H        5.600589149    14.522697780   -11.360082819
 H       -5.844244175    14.580150380     0.493037938
 H       -7.326132921    13.948571498    -0.207154701
 H       -6.059925258    14.549552305    -1.268278440
 H       -6.051730890    10.731711913    -1.597091073
 H       -6.204546352    12.238847038    -2.515997599
 H       -7.449896694    11.772387495    -1.363858661
 H       -4.495363316    12.865211629     2.455780907
 H       -2.970723594    13.462916610     3.092454610
 H       -3.049394596    11.837816514     2.427074414
 H       -1.112061841    13.988266680    -0.094348702
 H       -0.996320508    12.545213515     0.930535311
 H       -1.085231810    14.143830627     1.657289924
 H       -2.548886186    -1.646760139    -0.726183810
 H       -2.465446428    -1.616522719    -2.480508355
 H       -2.696202060    -0.110583568    -1.603328705
 H        0.900532170    -0.131107432    -2.958341693
 H       -0.615531377     0.790140307    -2.976442620
 H       -0.532359280    -0.799336722    -3.724310670
 H       -0.485108936    -2.982182496     0.725014574
 H       -0.648707845    -2.886839772     2.471890380
 H        0.894905552    -2.496907920     1.727519812
 H       -0.613795437     0.824321140     2.896146208
 H        0.805452466    -0.225538947     3.046292097
 H       -0.746153217    -0.734761052     3.699266190

