187   

Si        0.000000000     0.000000000     0.000000000
 C        1.865520247     0.000000000     0.000000000
 C       -0.681738180     1.709600195     0.000000000
 C        0.145924705     2.821215059    -0.185321404
 C       -0.386501716     4.110541010    -0.182655742
 C       -1.755874532     4.317316626     0.000460248
 C       -2.584560130     3.202075674     0.184462365
 C       -2.056002699     1.914623079     0.185039144
 C       -2.358221809     5.645426156     0.010875857
 C       -1.682804610     6.796040779    -0.150450132
 C       -2.297418287     8.118821377    -0.137987144
 C       -3.670043238     8.302488041     0.046901567
 C       -4.222456314     9.582198926     0.052956037
 C       -3.417278966    10.708722115    -0.139832542
 C       -2.040220254    10.526207334    -0.327083874
 C       -1.487943350     9.247547338    -0.320757246
Si       -4.136772148    12.404887574    -0.133754639
 C       -3.321351479    13.415463604    -1.425055322
 C       -3.979119155    14.140982154    -2.339113287
 C       -3.351106235    14.954754433    -3.378641570
 C       -4.185251734    15.657542839    -4.262002647
 C       -3.659530454    16.445929174    -5.268237632
 C       -2.262730031    16.614802621    -5.397676464
 C       -1.425398307    15.911181839    -4.507923579
 C       -1.969924101    15.078845832    -3.536211043
 N       -1.721368499    17.411474911    -6.413808847
 C       -2.577194457    18.379187812    -7.117723347
 C       -0.330358768    17.860049067    -6.262047013
 C       -2.432691817    18.245327881    -8.649107252
 C       -2.649125175    16.803536173    -9.157104857
 N       -3.926503611    16.254395699    -8.676364958
 C       -3.958000919    14.988011532    -8.079779704
 C       -2.778147972    14.377670327    -7.598718687
 C       -2.818879062    13.127214009    -7.011196487
 C       -4.035231064    12.453656499    -6.819800372
 C       -5.206682440    13.067943033    -7.265120694
 C       -5.180316030    14.313321965    -7.882866735
 C       -5.081144251    16.651593340    -9.493874888
 C       -3.999857576    11.134024319    -6.191570947
 C       -5.071303435    10.369663110    -5.942027553
Si       -4.995431553     8.718951169    -5.152871507
 C       -6.207202839     8.649089092    -3.766724499
 C       -7.474624340     9.230951357    -3.907957155
 C       -8.396220615     9.182391730    -2.864851116
 C       -8.080830108     8.540550471    -1.660089161
 C       -6.819455792     7.955748677    -1.523205224
 C       -5.893540967     8.009633097    -2.563834749
 C       -9.073740557     8.511730030    -0.591996122
 C       -8.882273664     7.933301583     0.605836115
 C       -9.867846467     7.898751975     1.680319764
 C      -11.133767584     8.477666459     1.562161690
 C      -12.045239758     8.420519462     2.616424181
 C      -11.710586864     7.776741632     3.811796895
 C      -10.440828575     7.195772410     3.933076042
 C       -9.531328401     7.259800830     2.881423260
Si      -12.902000909     7.692577528     5.212389077
 C      -14.624564925     8.168176048     4.677336196
 C      -12.893689499     5.917029924     5.898956676
 C      -12.338057735     8.876835290     6.591962730
 C       -5.470945506     7.371325165    -6.410254660
 C       -3.207497511     8.391065408    -4.585602285
 C       -6.014960167    12.408881381    -0.447491792
 C       -3.822713867    13.163394001     1.583593909
 C       -0.600238738    -0.928521829    -1.550056654
 C       -0.662380407    -0.898688556     1.541492644
 H        1.224630948     2.722068924    -0.333962884
 H        0.279700685     4.959200766    -0.326310485
 H       -3.654501927     3.341372123     0.328533088
 H       -2.750816146     1.083563444     0.336479592
 H       -3.441796971     5.653168598     0.164751331
 H       -0.600668636     6.792297843    -0.304337399
 H       -4.320677766     7.443108099     0.196316821
 H       -5.306109851     9.660057182     0.199777230
 H       -1.360417818    11.368454767    -0.484804164
 H       -0.416700961     9.126393322    -0.463149536
 H       -2.222531656    13.392019628    -1.400003519
 H       -5.077793763    14.179693815    -2.384350419
 H       -5.268547553    15.562637131    -4.174098457
 H       -4.338245564    16.919349196    -5.976301573
 H       -0.347506137    15.994788937    -4.580517065
 H       -1.298296460    14.525282612    -2.879155865
 H       -0.046648219    18.524676293    -7.093939762
 H        0.344098072    16.984957341    -6.304243707
 H       -0.155724445    18.395854312    -5.313688980
 H       -4.902813170    17.632221845    -9.963654870
 H       -5.969518294    16.761647497    -8.844906692
 H       -5.312132692    15.922455593   -10.288785860
 H       -1.823247726    14.896842766    -7.668307606
 H       -1.889008949    12.673470911    -6.665209731
 H       -6.166333129    12.569576471    -7.123925415
 H       -6.114291935    14.755641724    -8.208671392
 H       -2.977396010    10.822081325    -5.930962214
 H       -6.083814497    10.703804476    -6.210046733
 H       -7.777799493     9.743567838    -4.825385721
 H       -9.372366141     9.644787226    -2.990792761
 H       -6.550776018     7.446645714    -0.599739486
 H       -4.917419745     7.541213385    -2.391498774
 H      -10.019494196     9.005998288    -0.829013199
 H       -7.934611246     7.438746583     0.840319538
 H      -11.420514261     8.980497827     0.640424181
 H      -13.020082035     8.892133706     2.465225768
 H      -10.124469522     6.679402088     4.843836157
 H       -8.548739171     6.805473793     2.995417539
 H       -3.651439386    18.220969740    -6.858778634
 H       -2.335305637    19.420255816    -6.808673710
 H       -3.156981677    18.929796038    -9.127806322
 H       -1.427815721    18.579016482    -8.967009293
 H       -2.604096189    16.787770316   -10.268654216
 H       -1.791787564    16.182071695    -8.803717845
 H        2.263387702    -1.030196173     0.025550738
 H        2.262653174     0.530534183     0.884383539
 H        2.273613709     0.491923880    -0.900339303
 H      -15.341102236     8.075879708     5.512955621
 H      -14.980249029     7.512839997     3.861591891
 H      -14.668019786     9.210433865     4.315840389
 H      -11.838712682     5.727023816     6.252929091
 C      -13.836027108     5.718697224     7.099519545
 C      -13.225152886     4.867753079     4.822457927
 H      -13.131392805     8.813477435     7.391705848
 C      -10.990542861     8.487696680     7.225906544
 C      -12.254687384    10.338819648     6.116028285
 H       -5.381940046     6.392924666    -5.854184937
 C       -6.919585284     7.498314067    -6.914150340
 C       -4.524359385     7.321157217    -7.622802742
 H       -2.572019183     8.593554933    -5.498545969
 C       -2.762614610     9.355226841    -3.474179652
 C       -2.918321713     6.946651486    -4.140470708
 H       -6.289752287    13.500999855    -0.547871190
 C       -6.387182238    11.702800645    -1.761128472
 C       -6.869757955    11.827197817     0.692238825
 H       -4.365018848    12.495177093     2.314144459
 C       -2.333912552    13.179814534     1.973354675
 C       -4.390707401    14.586937853     1.723650184
 H       -0.087305560    -1.933146834    -1.518401021
 C       -2.119542787    -1.171874211    -1.581822332
 C       -0.187991609    -0.222461466    -2.854975520
 H       -1.787054080    -0.890718845     1.443417390
 C       -0.207650989    -2.365629833     1.640499542
 C       -0.299499548    -0.171328812     2.848919229
 H      -13.616337106     6.389180398     7.940401309
 H      -13.736554149     4.694981614     7.488988473
 H      -14.894981330     5.845488526     6.838333029
 H      -12.557004486     4.914410233     3.950497470
 H      -14.256335175     4.943028151     4.452759299
 H      -13.118164561     3.855232767     5.237049561
 H      -10.989379343     7.482500038     7.665941222
 H      -10.747150554     9.180530981     8.044732035
 H      -10.152729456     8.547301834     6.516774124
 H      -13.203990877    10.724844655     5.723142719
 H      -11.487403586    10.493306054     5.343672971
 H      -11.981235125    10.993383623     6.956104994
 H       -7.663411222     7.474805582    -6.105732192
 H       -7.162729447     6.654260674    -7.575032198
 H       -7.089529743     8.409322438    -7.503191131
 H       -3.475781904     7.145085645    -7.349518391
 H       -4.560490291     8.236132308    -8.230918079
 H       -4.810022891     6.495896864    -8.289975790
 H       -2.884562743    10.418344850    -3.726866234
 H       -1.697451385     9.211067863    -3.247280705
 H       -3.296578553     9.194459805    -2.524379794
 H       -3.146884365     6.198115253    -4.908862586
 H       -3.451211930     6.656317132    -3.224984969
 H       -1.848649485     6.834662061    -3.909129820
 H       -5.860616919    12.091415334    -2.644709961
 H       -7.460548633    11.817301235    -1.965298072
 H       -6.200396189    10.617634720    -1.735647868
 H       -6.705640718    12.320346196     1.658107116
 H       -6.724258279    10.748646825     0.840706462
 H       -7.937496068    11.952890242     0.459067309
 H       -1.872196617    12.182756288     1.962136956
 H       -2.218226684    13.556686663     2.999496084
 H       -1.731304835    13.838315459     1.333728071
 H       -5.472880226    14.642897725     1.547670445
 H       -3.906431451    15.308159667     1.050088639
 H       -4.226268336    14.959666723     2.744396155
 H       -2.491446598    -1.728930538    -0.712738854
 H       -2.384484326    -1.770940431    -2.465383804
 H       -2.698576606    -0.241015313    -1.660311306
 H        0.896130596    -0.081303567    -2.951805373
 H       -0.663338090     0.761621313    -2.976294776
 H       -0.498150097    -0.822797028    -3.722227534
 H       -0.491131656    -2.968883811     0.768418471
 H       -0.676997815    -2.845766717     2.511516621
 H        0.876491135    -2.469148675     1.780632600
 H       -0.643030553     0.872812517     2.874048023
 H        0.779028395    -0.169814022     3.054662025
 H       -0.777002478    -0.671703975     3.703418479

