187   

Si        0.000000000     0.000000000     0.000000000
 C        1.865326881     0.000000000     0.000000000
 C       -0.657816871     1.720039890     0.000000000
 C        0.021987902     2.726362385     0.696176777
 C       -0.462220356     4.033623346     0.706471845
 C       -1.639861374     4.364767063     0.030178149
 C       -2.323204677     3.355014270    -0.659418151
 C       -1.841346110     2.048269708    -0.672285139
 C       -2.183284976     5.718896334     0.013907667
 C       -1.625909465     6.773847551     0.632352803
 C       -2.168378992     8.128291762     0.616773834
 C       -1.482563410     9.136487771     1.306359681
 C       -1.962113441    10.444318189     1.319792618
 C       -3.132699758    10.777262103     0.629460801
 C       -3.818648282     9.771689383    -0.062831054
 C       -3.343040226     8.461831960    -0.063862983
Si       -3.799221955    12.491467424     0.621948315
 C       -4.559441425    12.895008362    -0.990816159
 C       -4.153391973    12.363592284    -2.151628609
 C       -4.743359426    12.668758855    -3.454434097
 C       -4.218254616    12.038466616    -4.591092284
 C       -4.734400520    12.286541360    -5.851921112
 C       -5.845012190    13.143682236    -6.013563092
 C       -6.370970227    13.777708900    -4.871827877
 C       -5.806051292    13.560340372    -3.621981282
 N       -6.358253288    13.386191289    -7.300195384
 C       -6.252716827    12.290637352    -8.284506295
 C       -7.626577444    14.128998371    -7.377445361
 C       -6.763909939    10.916872706    -7.811468278
 C       -8.283758149    10.732347863    -7.985885514
 N       -8.962776271    10.094701274    -6.833995996
 C       -9.046143653    10.971321891    -5.706266572
 C      -10.002558276    11.998688615    -5.792235434
 C      -10.150898906    12.893342898    -4.745001422
 C       -9.366827292    12.781345785    -3.586504788
 C       -8.434132227    11.745123019    -3.500324613
 C       -8.280306503    10.835504980    -4.542992303
 C       -8.443041529     8.748604284    -6.536289654
 C       -9.574752207    13.760152502    -2.517638538
 C       -8.904196285    13.780782074    -1.358083180
Si       -9.219010103    15.038704941    -0.064603424
 C       -9.782372393    16.621754674    -0.811817331
 C       -9.246101610    17.029051656    -2.039854513
 C       -9.654309694    18.223547658    -2.629332047
 C      -10.596078942    19.044219805    -2.001519404
 C      -11.124961045    18.638633542    -0.769546666
 C      -10.722501736    17.442269186    -0.179552900
 C      -11.052179226    20.302813547    -2.582042807
 C      -10.624751597    20.803019142    -3.753819221
 C      -11.079557244    22.061276041    -4.336000071
 C      -12.024055887    22.881879656    -3.714038642
 C      -12.430626814    24.077298561    -4.306601853
 C      -11.905561632    24.474484932    -5.540333266
 C      -10.959104274    23.652412715    -6.166867865
 C      -10.550733141    22.462880745    -5.570178413
Si      -12.432311220    26.049381506    -6.334955922
 C      -13.962370516    26.746924088    -5.527566914
 C      -11.028754197    27.327597639    -6.194209503
 C      -12.758373867    25.710016854    -8.179363989
 C      -10.502089528    14.354553396     1.157042746
 C       -7.588254348    15.363009629     0.857443796
 C       -5.143520882    12.632798332     1.960233055
 C       -2.424149362    13.748562423     1.000366215
 C       -0.645329129    -0.933342881    -1.528660121
 C       -0.635567027    -0.896268609     1.554110371
 H        0.947522326     2.528438603     1.244444609
 H        0.088023093     4.798678533     1.251310918
 H       -3.242933708     3.590537699    -1.191457138
 H       -2.419793658     1.303430686    -1.225456686
 H       -3.110837119     5.832992097    -0.554509152
 H       -0.698390761     6.659217240     1.201082913
 H       -0.565595205     8.898005373     1.841793028
 H       -1.388395137    11.186603150     1.881285070
 H       -4.739668683     9.975649206    -0.620644125
 H       -3.895649399     7.696809919    -0.605957002
 H       -5.378138394    13.629465653    -0.949175954
 H       -3.332145473    11.634431540    -2.213636427
 H       -3.379417041    11.348701487    -4.487113866
 H       -4.274367578    11.817790967    -6.716420446
 H       -7.228304584    14.440571404    -4.948341190
 H       -6.226351372    14.079041983    -2.757547752
 H       -7.927952384    14.257599554    -8.429257141
 H       -7.475709833    15.142566473    -6.961553016
 H       -8.454519341    13.643005665    -6.831509782
 H       -8.599201702     8.110148888    -7.422999002
 H       -9.029851002     8.311259625    -5.709184552
 H       -7.376540735     8.712747444    -6.267035699
 H      -10.629532059    12.071914562    -6.678792259
 H      -10.894649708    13.687170157    -4.820510155
 H       -7.809464045    11.641301925    -2.610982879
 H       -7.544434109    10.041062530    -4.453575303
 H      -10.348699898    14.502195030    -2.766565344
 H       -8.141012831    13.025901711    -1.117566298
 H       -8.501192971    16.430049887    -2.576116909
 H       -9.228069419    18.515795531    -3.587452638
 H      -11.859158311    19.263161751    -0.264098374
 H      -11.170200507    17.177993492     0.782166313
 H      -11.793990514    20.840599106    -1.984385980
 H       -9.882396843    20.265147720    -4.350778075
 H      -12.451526583    22.593291866    -2.755523875
 H      -13.171439940    24.677834989    -3.771397897
 H      -10.515032972    23.911286588    -7.132274961
 H       -9.813283936    21.838718701    -6.071176610
 H       -6.773974654    12.595970453    -9.218071240
 H       -5.173174686    12.208904852    -8.561087591
 H       -6.225493905    10.120115999    -8.355853672
 H       -6.491945405    10.770546881    -6.744331947
 H       -8.778408979    11.711031189    -8.173047208
 H       -8.496564665    10.104670919    -8.879483863
 H        2.263969592    -1.028638781    -0.054541949
 H        2.277850705     0.469675466     0.909725974
 H        2.257911932     0.556189025    -0.871050565
 H      -14.298006741    27.666827241    -6.038927649
 H      -13.786531044    27.001269355    -4.467665283
 H      -14.796229513    26.022700848    -5.567210302
 H      -11.437512311    28.279651307    -6.641083456
 C      -10.637791064    27.615427381    -4.733019697
 C       -9.761151260    26.940465471    -6.976663025
 H      -11.778619894    25.344337567    -8.604543720
 C      -13.807842257    24.605436993    -8.398987492
 C      -13.175996090    26.962858271    -8.969672857
 H      -10.645983516    15.153177905     1.941079822
 C      -11.862926181    14.091247331     0.488056833
 C      -10.037565892    13.070436760     1.867613018
 H       -7.186893882    14.342662486     1.130637716
 C       -6.549532115    16.074430170    -0.027019505
 C       -7.765337348    16.166315274     2.156972720
 H       -5.501671152    13.704115326     1.925368675
 C       -6.345604694    11.713033301     1.680847201
 C       -4.619911906    12.355119157     3.379223605
 H       -2.006012559    13.460176869     2.007765823
 C       -1.281342876    13.688167147    -0.029046080
 C       -2.930421365    15.198980186     1.096369406
 H       -1.771703558    -0.897206175    -1.462493037
 C       -0.226246145    -0.265755289    -2.851153904
 C       -0.226688918    -2.414456193    -1.564032740
 H       -0.180891820    -1.928246870     1.522674718
 C       -0.184049805    -0.215832131     2.859281321
 C       -2.167137618    -1.048405189     1.579846465
 H      -11.473254170    27.979037896    -4.121060966
 H       -9.866966937    28.398645405    -4.696402304
 H      -10.209856882    26.739080328    -4.225043816
 H       -9.936448341    26.806868781    -8.051608390
 H       -9.286428591    26.025514158    -6.595008075
 H       -9.006824741    27.735857642    -6.886204648
 H      -13.547838678    23.656288201    -7.908795683
 H      -13.900958518    24.381543638    -9.471238966
 H      -14.810730997    24.891205908    -8.054956023
 H      -12.439744063    27.775399049    -8.917743743
 H      -14.144866086    27.368213679    -8.649048822
 H      -13.284865289    26.715053398   -10.035617311
 H      -12.293178459    14.979686500     0.005697503
 H      -12.596389791    13.763987974     1.238389519
 H      -11.820149752    13.293994386    -0.268451884
 H       -9.107577813    13.199949823     2.436659715
 H       -9.895909480    12.227226997     1.176867538
 H      -10.798017568    12.746746912     2.592845166
 H       -6.336657977    15.549997104    -0.968746366
 H       -5.591008232    16.153822863     0.506636739
 H       -6.841894256    17.103102992    -0.283451520
 H       -8.423720169    15.677866367     2.886414802
 H       -8.152125967    17.180474707     1.985488613
 H       -6.793756052    16.290782702     2.657410959
 H       -6.802348204    11.875386052     0.694419520
 H       -7.137069619    11.890592177     2.422935860
 H       -6.090783423    10.646034602     1.755412861
 H       -3.816825728    13.035863428     3.689176443
 H       -4.252126080    11.326986957     3.507017689
 H       -5.430139272    12.482919352     4.111622079
 H       -0.824907997    12.692879058    -0.119546832
 H       -0.472140323    14.372002712     0.263170694
 H       -1.598074979    13.997335740    -1.036132777
 H       -3.692918401    15.343253421     1.872397324
 H       -3.337406894    15.571353804     0.145350136
 H       -2.099005985    15.870174786     1.356520194
 H       -0.526219570     0.789231607    -2.922259851
 H       -0.700942160    -0.778562346    -3.699727401
 H        0.856569601    -0.312529781    -3.029125457
 H       -0.565674360    -2.982697399    -0.688135122
 H        0.859113031    -2.551735759    -1.652246955
 H       -0.670390919    -2.908771410    -2.440501454
 H        0.906556848    -0.145496505     2.959469406
 H       -0.534953393    -0.794530064     3.725919932
 H       -0.597782423     0.795940673     2.978573876
 H       -2.563123720    -1.614100744     0.726923729
 H       -2.692078271    -0.083026651     1.614631140
 H       -2.475656662    -1.597393383     2.481363721

