187   

Si        0.000000000     0.000000000     0.000000000
 C        1.865190337     0.000000000     0.000000000
 C       -0.661088669     1.718941284     0.000000000
 C        0.052588588     2.747483139    -0.625420587
 C       -0.440097510     4.051777809    -0.630457454
 C       -1.660323076     4.356655009    -0.021159792
 C       -2.377788180     3.324492128     0.597201201
 C       -1.887173955     2.021305284     0.605712430
 C       -2.214641044     5.705892285    -0.001701098
 C       -1.629402832     6.782291691    -0.553785047
 C       -2.188397138     8.129488350    -0.531309265
 C       -3.409595541     8.424556452     0.080610649
 C       -3.909588796     9.726014498     0.080213410
 C       -3.191808567    10.762664491    -0.524342850
 C       -1.966951093    10.471265837    -1.138681897
 C       -1.475405319     9.168518339    -1.145050784
Si       -3.830915885    12.486226013    -0.537348178
 C       -2.463210651    13.587888911    -0.029578387
 C       -2.058223138    14.694208836    -0.665457669
 C       -0.950503870    15.537549624    -0.204917563
 C       -0.609801502    16.676191610    -0.949426007
 C        0.431550766    17.500878697    -0.548602089
 C        1.192442193    17.167364894     0.582753182
 C        0.897216195    16.003190514     1.297802015
 C       -0.147776699    15.183781278     0.883648966
 N        2.249732899    18.079378730     0.922797187
 C        1.764262870    19.166023215     1.807079330
 C        3.465083736    17.418079083     1.431476678
 C        1.474896122    18.752903508     3.263885943
 C        0.172351864    19.348219781     3.832664449
 N       -1.064991473    18.598171041     3.529938774
 C       -1.055684599    17.218735803     3.819285965
 C       -0.294583538    16.722620388     4.899490435
 C       -0.282424513    15.366597974     5.187804242
 C       -1.046645396    14.458501993     4.443048002
 C       -1.839425587    14.959300075     3.406830787
 C       -1.875769301    16.315919441     3.115645015
 C       -1.667937378    18.982945559     2.240453444
 C       -1.000161965    13.036322356     4.786385678
 C       -1.689606202    12.086143998     4.140915349
Si       -1.650513551    10.304021435     4.547890002
 C       -1.341912306     9.964681908     6.326367905
 C       -1.704383805    10.900883151     7.302915794
 C       -1.469636547    10.641894265     8.650869781
 C       -0.880865361     9.437483206     9.057525079
 C       -0.529326540     8.500621563     8.081555197
 C       -0.759420625     8.758417008     6.730998153
 C       -0.654760789     9.211429139    10.481282696
 C       -0.097035419     8.104604232    11.000761225
 C        0.129631693     7.877261048    12.424101638
 C       -0.220494025     8.811485983    13.402301121
 C        0.014583286     8.552613708    14.752625594
 C        0.599403644     7.347750942    15.154589865
 C        0.950247580     6.408298422    14.175472117
 C        0.719802022     6.672015162    12.828253047
Si        0.916594396     6.990019203    16.932113687
 C        0.038730455     8.203702116    18.044016450
 C        0.326552441     5.217401325    17.297386282
 C        2.786340595     7.088632426    17.275610157
 C       -3.283063302     9.505158067     3.993905352
 C       -0.245838763     9.542820293     3.506656119
 C       -4.438636263    12.895702494    -2.293822221
 C       -5.301431140    12.734229742     0.642941485
 C       -0.633921905    -0.898086125    -1.553526957
 C       -0.647371207    -0.928614406     1.530559704
 H        1.011848603     2.569936850    -1.119961991
 H        0.137603290     4.834829146    -1.118300173
 H       -3.330860885     3.539776804     1.076901871
 H       -2.492504748     1.257919942     1.102269230
 H       -3.177247628     5.796619979     0.510663712
 H       -0.667704377     6.692681957    -1.066711296
 H       -3.982748893     7.636569108     0.565703085
 H       -4.873961155     9.892888197     0.568475815
 H       -1.360897288    11.245624150    -1.620765714
 H       -0.524400283     8.957761928    -1.630328451
 H       -1.959070986    13.247951307     0.893568347
 H       -2.531911967    15.063706342    -1.582891978
 H       -1.181020071    16.932004753    -1.840760902
 H        0.686560644    18.393963217    -1.116907317
 H        1.484376795    15.722322948     2.169165660
 H       -0.342299928    14.260755257     1.435402850
 H        4.274387697    18.166954679     1.477149482
 H        3.775418189    16.638201473     0.713912733
 H        3.363812992    16.955174720     2.424387601
 H       -1.582317270    20.070579895     2.089284134
 H       -2.747812141    18.748336204     2.264150371
 H       -1.212614662    18.471140523     1.373538316
 H        0.288369407    17.401350039     5.514560329
 H        0.327685809    15.006034900     6.016816738
 H       -2.468697246    14.282469218     2.824662545
 H       -2.519328171    16.659168932     2.310686192
 H       -0.345147919    12.818812449     5.640874005
 H       -2.325878129    12.332369994     3.275759583
 H       -2.176149725    11.854886868     7.044368168
 H       -1.751882843    11.384301463     9.394972608
 H       -0.072089580     7.556245158     8.370710591
 H       -0.464835622     7.986565423     6.013922420
 H       -0.979143900    10.029222969    11.131480109
 H        0.226709820     7.287098524    10.349932726
 H       -0.681572105     9.755016000    13.116065769
 H       -0.279771373     9.322443155    15.471233553
 H        1.409185891     5.448930399    14.430660348
 H        1.000285385     5.930778937    12.082381371
 H        2.535988643    19.967457947     1.783325272
 H        0.855219070    19.599662872     1.334782746
 H        1.433200666    17.646351025     3.337914092
 H        2.321834881    19.050751706     3.908724015
 H        0.247592692    19.408876856     4.945448463
 H        0.045128660    20.397932767     3.488683188
 H        2.263731655    -1.028343003     0.062710296
 H        2.258316178     0.562846736     0.866505596
 H        2.277350071     0.461565415    -0.914056649
 H        0.199562768     7.956385527    19.108532308
 H       -1.051226060     8.191210429    17.861699059
 H        0.395628449     9.236337266    17.884944043
 H        0.934469507     4.544506518    16.625052350
 C        0.571175511     4.775854659    18.751301927
 C       -1.159149026     5.008291169    16.952739706
 H        2.901324147     6.922394739    18.385678705
 C        3.606595023     6.010234114    16.545359410
 C        3.375823097     8.469974981    16.935912210
 H       -3.411310552     9.790210990     2.907014933
 C       -3.268798381     7.968623497     4.073991741
 C       -4.493647547    10.036709997     4.781191908
 H       -0.335044609     8.425100982     3.625662155
 C       -0.368654889     9.876778217     2.011644045
 C        1.148549710     9.969469980     3.998841413
 H       -4.730823834    13.985469643    -2.273183719
 C       -3.350071891    12.714979963    -3.366869838
 C       -5.675561989    12.078093788    -2.706592774
 H       -6.084202857    11.990614490     0.313481713
 C       -4.970928584    12.456138758     2.117971438
 C       -5.912626290    14.144307790     0.538515969
 H       -0.175159961    -1.928297119    -1.523353561
 C       -2.164865729    -1.056346775    -1.578407730
 C       -0.186106010    -0.214425899    -2.858270035
 H       -1.773332374    -0.913100025     1.450645313
 C       -0.202545897    -2.401221551     1.587121423
 C       -0.257115817    -0.238320468     2.850216186
 H        1.625432617     4.832302149    19.051633213
 H        0.271172685     3.725633694    18.879765421
 H       -0.015223718     5.353090343    19.478406745
 H       -1.400285010     5.251338217    15.907865028
 H       -1.834779322     5.591731343    17.592112993
 H       -1.434053171     3.953274342    17.093528375
 H        3.300029701     4.986215408    16.793156195
 H        4.666373998     6.089410447    16.828618944
 H        3.574228135     6.117669253    15.451937331
 H        2.897611431     9.294648306    17.479883081
 H        3.322847401     8.704410267    15.862887042
 H        4.441284586     8.501498383    17.205291119
 H       -2.503923860     7.508798998     3.433400198
 H       -4.233754629     7.565234182     3.735624847
 H       -3.121295202     7.591961583     5.095538630
 H       -4.595712264    11.129974393     4.744432056
 H       -4.472029793     9.745067322     5.840988423
 H       -5.424496356     9.622979642     4.369131823
 H       -1.325425269     9.562129047     1.568735702
 H        0.411382832     9.352120364     1.442218766
 H       -0.240800190    10.947061591     1.797559617
 H        1.339041989     9.712176950     5.049517397
 H        1.329999731    11.047808509     3.883705240
 H        1.925824669     9.460645833     3.411700855
 H       -2.433154431    13.285055939    -3.165287376
 H       -3.720921772    13.062664143    -4.341626150
 H       -3.062860048    11.662844477    -3.506985580
 H       -6.541324179    12.232722413    -2.050118991
 H       -5.479538927    10.997344536    -2.752469368
 H       -6.001036863    12.371613066    -3.715365701
 H       -4.532154273    11.463478163     2.289790652
 H       -5.888384369    12.491814190     2.723301204
 H       -4.293222537    13.205460139     2.551540849
 H       -6.283181626    14.388163450    -0.464846788
 H       -5.213697019    14.938389495     0.838857457
 H       -6.779282573    14.228648811     1.210100189
 H       -2.557483780    -1.628471858    -0.728191535
 H       -2.471718066    -1.602092048    -2.482516532
 H       -2.694056148    -0.093208914    -1.608173970
 H        0.904050266    -0.136317068    -2.957895703
 H       -0.606340083     0.794602124    -2.977617599
 H       -0.532310613    -0.795241137    -3.725353521
 H       -0.509543446    -2.982466889     0.708034370
 H       -0.657854286    -2.897245567     2.456721473
 H        0.883277514    -2.517042470     1.702284922
 H       -0.582212167     0.810166066     2.906756779
 H        0.824391079    -0.258395854     3.040391574
 H       -0.729454029    -0.753048674     3.699052730

