187   

Si        0.000000000     0.000000000     0.000000000
 C        1.864951087     0.000000000     0.000000000
 C       -0.685096745     1.708542400     0.000000000
 C        0.103099946     2.802986455    -0.369687883
 C       -0.427406050     4.093075786    -0.365710395
 C       -1.756322479     4.317575441     0.002722065
 C       -2.546287374     3.219272651     0.368321281
 C       -2.019844232     1.930707132     0.365132946
 C       -2.355731013     5.647556542     0.022434541
 C       -1.715907020     6.783590900    -0.303257246
 C       -2.323331175     8.110290421    -0.280769901
 C       -1.545202913     9.216730722    -0.644062935
 C       -2.084716250    10.501511180    -0.636773997
 C       -3.412820557    10.710033930    -0.250768121
 C       -4.192168435     9.605450660     0.115860334
 C       -3.653201650     8.321057581     0.096224772
Si       -4.169722992    12.385788579    -0.224755423
 C       -5.314022436    12.561445949     1.194102695
 C       -5.138602517    11.899123965     2.345254386
 C       -6.020572890    12.001651280     3.509624673
 C       -5.704572141    11.243142716     4.647170225
 C       -6.500305064    11.297329015     5.780224724
 C       -7.641735585    12.117535927     5.795550084
 C       -7.957333146    12.886111641     4.669989788
 C       -7.141322410    12.834811020     3.543264702
 N       -8.404161975    12.110996412     7.007937147
 C       -9.238395753    10.892860283     7.130150956
 C       -9.157536686    13.350526904     7.267475467
 C      -10.441006254    10.840174620     6.168044259
 C      -10.640993000     9.463721481     5.507336670
 N       -9.832569731     9.209469174     4.298928416
 C       -9.876354513    10.172341528     3.276150404
 C      -11.033936619    10.960223869     3.094601593
 C      -11.084551519    11.911265209     2.088695270
 C      -10.021211323    12.077176867     1.191142070
 C       -8.892411654    11.267433834     1.344813473
 C       -8.818371294    10.320962287     2.357544334
 C       -8.519371271     8.607454486     4.582587695
 C      -10.135940751    13.098927205     0.151092186
 C       -9.194176283    13.357572669    -0.765991230
Si       -9.361072154    14.641006421    -2.057067864
 C      -11.111791293    14.903441645    -2.550381870
 C      -12.005014236    13.823849313    -2.537132782
 C      -13.334704647    14.003740393    -2.907567759
 C      -13.802235880    15.260886423    -3.313254146
 C      -12.907085313    16.333901490    -3.333445334
 C      -11.575513799    16.158115639    -2.957699454
 C      -15.204602220    15.398322755    -3.691872837
 C      -15.781769167    16.543551542    -4.093307383
 C      -17.184753700    16.677798192    -4.471359703
 C      -18.077170397    15.602960448    -4.450079651
 C      -19.410995961    15.775685146    -4.819669975
 C      -19.880034503    17.028603901    -5.226425278
 C      -18.986550965    18.108274479    -5.249883260
 C      -17.657384638    17.933956002    -4.874746165
Si      -21.637238458    17.273318116    -5.717314646
 C      -22.518869145    15.645665450    -5.947946503
 C      -22.541474527    18.271059872    -4.371940805
 C      -21.668381037    18.273151657    -7.336933569
 C       -8.592136080    16.249766417    -1.392765025
 C       -8.380628590    14.081004948    -3.588523567
 C       -2.854667652    13.751336550    -0.123842675
 C       -5.175995777    12.598490098    -1.825881538
 C       -0.618124925    -0.917992162    -1.548721151
 C       -0.650737945    -0.912655292     1.539125949
 H        1.149415170     2.689600651    -0.666539206
 H        0.207603286     4.928535655    -0.654702302
 H       -3.584426583     3.372130014     0.657262299
 H       -2.684565798     1.113342114     0.658640616
 H       -3.405389463     5.670018498     0.330709313
 H       -0.667162140     6.763988556    -0.612971229
 H       -0.507492687     9.074608289    -0.939786364
 H       -1.431870700    11.325154072    -0.937828511
 H       -5.238029435     9.709312682     0.426974030
 H       -4.280105046     7.477872902     0.380954243
 H       -6.149521985    13.263108484     1.052210193
 H       -4.303146694    11.200777092     2.505066213
 H       -4.820096764    10.605518368     4.644214615
 H       -6.242200710    10.725681552     6.669845152
 H       -8.838552448    13.522060522     4.662560148
 H       -7.402139842    13.439220765     2.672512644
 H       -9.535104723    13.318382944     8.304071773
 H      -10.009824363    13.524900204     6.593498006
 H       -8.469959592    14.211670483     7.194225945
 H       -8.596253051     7.899123644     5.422611023
 H       -7.739393625     9.352375520     4.822271056
 H       -8.192923116     8.024587903     3.701464129
 H      -11.894712653    10.828200462     3.742722256
 H      -11.978939506    12.527490039     1.986255024
 H       -8.046740272    11.373901732     0.661868789
 H       -7.918538213     9.718787128     2.444643046
 H      -11.091847495    13.641576736     0.187186609
 H       -8.240162856    12.808333139    -0.780110529
 H      -11.694126898    12.817556818    -2.234971424
 H      -14.015812308    13.154999113    -2.883980134
 H      -13.244311140    17.320561413    -3.645109013
 H      -10.923245556    17.034770361    -2.993120943
 H      -15.787500907    14.474540940    -3.628193134
 H      -15.199921940    17.467559258    -4.157719271
 H      -17.736413569    14.616044210    -4.142196811
 H      -20.061581579    14.897608233    -4.781125879
 H      -19.296323358    19.110246194    -5.560061727
 H      -16.979013677    18.784725536    -4.898137898
 H       -8.575506477    10.012477391     6.977998159
 H       -9.585091343    10.838289470     8.185782754
 H      -11.363347468    11.123327511     6.706877503
 H      -10.319124652    11.612593957     5.379125182
 H      -10.450980784     8.650729666     6.242086845
 H      -11.711781517     9.348051947     5.209032268
 H        2.262573822    -1.029428974     0.050933797
 H        2.260649256     0.552212582     0.871891308
 H        2.275664759     0.470066624    -0.910662425
 H      -23.560372123    15.800919385    -6.281803850
 H      -22.553694275    15.062544788    -5.011068933
 H      -22.014760526    15.026711822    -6.712286989
 H      -23.617056960    18.329381877    -4.708252595
 C      -22.507643092    17.574964450    -2.998948569
 C      -22.015522355    19.708312571    -4.208619835
 H      -21.159908183    19.253929908    -7.104588016
 C      -20.876983495    17.589069616    -8.466318800
 C      -23.089320104    18.586114362    -7.838340667
 H       -8.683450015    17.006853540    -2.223510793
 C       -9.347094380    16.790826194    -0.165379117
 C       -7.100323268    16.109838501    -1.038752296
 H       -7.332634986    13.862965538    -3.228144040
 C       -8.954234647    12.792152099    -4.203933162
 C       -8.292146904    15.159887621    -4.681091218
 H       -2.196139001    13.620791825    -1.030697723
 C       -3.452301801    15.169467996    -0.170702156
 C       -1.972170702    13.623751875     1.130668844
 H       -5.799051748    13.527394523    -1.674118084
 C       -4.305492326    12.809488456    -3.076303633
 C       -6.121499627    11.410658134    -2.077167012
 H       -0.130314761    -1.934859273    -1.517001411
 C       -2.143632920    -1.121294041    -1.572555977
 C       -0.192210810    -0.224462601    -2.855666874
 H       -1.775249277    -0.923534312     1.440740725
 C       -0.173615098    -2.372828471     1.634126960
 C       -0.299602237    -0.183946859     2.848903339
 H      -22.942362534    16.567210118    -3.009303512
 H      -23.091546708    18.153575521    -2.268784970
 H      -21.491740698    17.494627606    -2.585949991
 H      -22.076236653    20.302437065    -5.129173050
 H      -20.976876706    19.744108200    -3.850834922
 H      -22.615509993    20.244054509    -3.458486590
 H      -19.830203915    17.383826306    -8.199736054
 H      -20.845982991    18.238942894    -9.352474832
 H      -21.326536138    16.642162475    -8.793266246
 H      -23.694844884    19.141727747    -7.110685094
 H      -23.650812198    17.686556071    -8.123310143
 H      -23.039065696    19.214474789    -8.739588997
 H      -10.412644010    16.978498576    -0.356248784
 H       -8.919129194    17.752827245     0.148962422
 H       -9.281017980    16.122223306     0.705733436
 H       -6.478740449    15.806764479    -1.891207719
 H       -6.921054533    15.400468031    -0.217928630
 H       -6.703061825    17.077417136    -0.699701771
 H       -9.019224652    11.957309723    -3.492200172
 H       -8.313429522    12.449213408    -5.028456233
 H       -9.955960887    12.935508302    -4.634760393
 H       -7.797038231    16.079944207    -4.345472065
 H       -9.273998743    15.438062547    -5.089919239
 H       -7.703297745    14.786830340    -5.531609283
 H       -4.045166163    15.364251322    -1.073938886
 H       -2.645964566    15.916859533    -0.166255838
 H       -4.082693259    15.395474526     0.701090913
 H       -1.463145892    12.653628780     1.212463280
 H       -2.532101776    13.781174032     2.064284573
 H       -1.180121652    14.385682541     1.114828029
 H       -3.660075753    13.694809294    -3.016028460
 H       -4.944827566    12.956125909    -3.959457355
 H       -3.665906413    11.945617448    -3.304651745
 H       -6.814430252    11.213176229    -1.247968171
 H       -5.583502416    10.474545383    -2.286103972
 H       -6.745632889    11.604392605    -2.962700449
 H       -2.520023583    -1.696608279    -0.717316724
 H       -2.433197602    -1.684880740    -2.471550109
 H       -2.700277297    -0.174285330    -1.613724664
 H        0.894908367    -0.112169704    -2.956330543
 H       -0.642789414     0.771177374    -2.977052989
 H       -0.520721772    -0.817749140    -3.721126097
 H       -0.449532316    -2.978248762     0.761095776
 H       -0.634326955    -2.862057522     2.504715166
 H        0.912153374    -2.460630358     1.772500513
 H       -0.659735176     0.854387484     2.877919362
 H        0.779045841    -0.165252127     3.053903012
 H       -0.767648074    -0.695323113     3.702092016

