187   

Si        0.000000000     0.000000000     0.000000000
 C        1.865263470     0.000000000     0.000000000
 C       -0.660078313     1.719208660     0.000000000
 C        0.000959077     2.722630196    -0.717856406
 C       -0.487665162     4.028468884    -0.726599664
 C       -1.649487784     4.361034150    -0.024354101
 C       -2.314356356     3.354008793     0.687097823
 C       -1.829782673     2.048465187     0.695900442
 C       -2.198678969     5.712654155    -0.003906876
 C       -1.663985438     6.767457585    -0.642101844
 C       -2.216746180     8.117840802    -0.618908027
 C       -3.379656106     8.442660998     0.086095816
 C       -3.874510131     9.745737319     0.082303546
 C       -3.213237690    10.753682737    -0.627832630
 C       -2.050166080    10.432017180    -1.337833381
 C       -1.561588536     9.127688076    -1.335192027
Si       -3.865589929    12.473572253    -0.633373080
 C       -2.568983659    13.608767138    -1.243902325
 C       -2.719693505    14.529435689    -2.204289368
 C       -1.646606158    15.417107562    -2.658788570
 C       -1.922899014    16.345201973    -3.675046767
 C       -0.942195238    17.206097518    -4.139059128
 C        0.364739564    17.135546095    -3.617036239
 C        0.644632115    16.212897089    -2.599883058
 C       -0.360195467    15.380666907    -2.116895596
 N        1.324616336    18.048362778    -4.136934382
 C        1.617331103    17.834547412    -5.574185330
 C        2.550697251    18.204600868    -3.333716121
 C        2.086240679    16.411085926    -5.927826681
 C        0.928234264    15.541308569    -6.459672281
 N        1.133029803    14.095666314    -6.262819337
 C        2.295499993    13.538773134    -6.825383538
 C        2.735878938    13.988894554    -8.089431890
 C        3.877202320    13.456304265    -8.664291996
 C        4.596384535    12.430027588    -8.033510094
 C        4.141889058    11.965255822    -6.797147548
 C        3.007271268    12.499164874    -6.198637253
 C        0.749541167    13.636108488    -4.918801011
 C        5.795551329    11.905266826    -8.687569629
 C        6.563500266    10.928613132    -8.185414263
Si        8.059827516    10.281378950    -9.012430572
 C        8.882631502    11.572933710   -10.032248817
 C        8.903540366    12.899199089    -9.579365076
 C        9.520286008    13.893046076   -10.334256897
 C       10.140865232    13.586861992   -11.552813532
 C       10.124736802    12.262361757   -11.997969978
 C        9.504293034    11.264951965   -11.246152240
 C       10.774065179    14.662740222   -12.308338153
 C       11.397570475    14.504636921   -13.488201302
 C       12.031104737    15.579558711   -14.244670634
 C       12.048699146    16.904691461   -13.801928718
 C       12.666310081    17.901134975   -14.557809513
 C       13.284109235    17.591894743   -15.773565904
 C       13.267167896    16.263564326   -16.220182292
 C       12.646233908    15.272096806   -15.465813301
Si       14.103456496    18.895429204   -16.782818879
 C       14.356304029    20.463565569   -15.804685133
 C       15.777119457    18.220299172   -17.388088866
 C       13.025402070    19.287601992   -18.301850637
 C        9.278410132     9.688771504    -7.676969486
 C        7.570600149     8.793957838   -10.093098261
 C       -5.416063361    12.557043660    -1.730362116
 C       -4.335126402    12.976088405     1.139498374
 C       -0.633948086    -0.895528066    -1.555367169
 C       -0.643624793    -0.937568065     1.526980723
 H        0.914427531     2.523390780    -1.285432965
 H        0.046795730     4.791262060    -1.289871878
 H       -3.222261474     3.590581507     1.238787628
 H       -2.394829080     1.305371950     1.265265703
 H       -3.112659031     5.825019577     0.586959697
 H       -0.750802953     6.656347481    -1.233876429
 H       -3.909958495     7.675494887     0.647265567
 H       -4.787128573     9.939845938     0.652744934
 H       -1.496831147    11.179602147    -1.915431012
 H       -0.658600638     8.893973066    -1.896279653
 H       -1.603722888    13.482535021    -0.724119486
 H       -3.667585225    14.689081744    -2.734037398
 H       -2.926153555    16.399337385    -4.098555077
 H       -1.176937944    17.948858830    -4.898854964
 H        1.642671960    16.138399218    -2.177848886
 H       -0.126362129    14.682568622    -1.311463768
 H        3.108232609    19.079810544    -3.711920274
 H        3.221959489    17.332069585    -3.350431170
 H        2.278184488    18.426162841    -2.286981129
 H       -0.211368892    14.100098144    -4.625418399
 H        1.489784675    13.878151269    -4.139583290
 H        0.582879458    12.544176858    -4.938667890
 H        2.179675386    14.758318095    -8.617070490
 H        4.212114142    13.832266454    -9.632021013
 H        4.681823752    11.167295783    -6.285639096
 H        2.690786188    12.111500058    -5.235803586
 H        6.017644011    12.401711588    -9.643432897
 H        6.315905557    10.439499131    -7.231792107
 H        8.435777250    13.196050312    -8.634393510
 H        9.520921669    14.918537383    -9.969901225
 H       10.599249880    11.997350690   -12.940851778
 H        9.525001651    10.247726256   -11.646410443
 H       10.710634132    15.649376758   -11.840145873
 H       11.460962579    13.517701858   -13.955891066
 H       11.577698308    17.171277973   -12.857595058
 H       12.648130788    18.919232195   -14.159194039
 H       13.733816384    15.962876475   -17.162520348
 H       12.642048649    14.246474418   -15.829917735
 H        0.701484203    18.102011357    -6.147475546
 H        2.387763972    18.578028832    -5.878143715
 H        2.897566191    16.448181537    -6.678425571
 H        2.541431111    15.928050901    -5.041955003
 H       -0.031462601    15.822589250    -5.966872062
 H        0.771645977    15.728843972    -7.545908354
 H        2.263768650    -1.028802589     0.052312482
 H        2.258137818     0.554496052     0.872014038
 H        2.277462927     0.471707399    -0.908817428
 H       14.884632968    21.225841970   -16.404803467
 H       14.963862740    20.272909704   -14.901334213
 H       13.396896261    20.902590570   -15.479602314
 H       15.536412540    17.307486854   -18.007236558
 C       16.549601274    19.205659762   -18.283052726
 C       16.687372257    17.775517516   -16.228998908
 H       13.552209711    20.127000095   -18.841334009
 C       12.885046092    18.107145554   -19.279476215
 C       11.617705110    19.777480082   -17.915495885
 H        8.732333095     8.898415130    -7.085543981
 C       10.552623467     9.054428478    -8.261064605
 C        9.679368340    10.817007146    -6.709504956
 H        8.526811397     8.415848073   -10.557287467
 C        6.945661342     7.639741022    -9.289015022
 C        6.608353419     9.187719790   -11.228131784
 H       -5.701550278    13.647897135    -1.779766764
 C       -5.145412446    12.064442284    -3.163862310
 C       -6.614869188    11.778824780    -1.159726384
 H       -5.143140600    12.256559084     1.460983427
 C       -3.159075337    12.837724232     2.122601481
 C       -4.902957800    14.402992586     1.231742891
 H       -0.175188460    -1.925789282    -1.526262871
 C       -2.164924046    -1.053522067    -1.579753028
 C       -0.186516373    -0.211282834    -2.859902777
 H       -1.770048204    -0.902286459     1.461607901
 C       -0.223522870    -2.418403621     1.557950419
 C       -0.223881542    -0.273750905     2.851193929
 H       15.988252549    19.516124093   -19.173755047
 H       17.472357101    18.733762162   -18.650979411
 H       16.861333385    20.113959831   -17.750506073
 H       16.220600760    17.025942149   -15.573912876
 H       17.014680301    18.610383135   -15.595251525
 H       17.601545139    17.310411560   -16.624564520
 H       13.845236766    17.749205593   -19.671889748
 H       12.291983455    18.412645012   -20.153867127
 H       12.358822546    17.248583779   -18.838861183
 H       11.625898238    20.672747328   -17.280605781
 H       11.024965046    19.008650195   -17.399160363
 H       11.051544026    20.046837971   -18.818665775
 H       10.353719222     8.178356641    -8.891392067
 H       11.206093512     8.705548263    -7.448400859
 H       11.151343914     9.762440369    -8.851931577
 H        8.822236826    11.286074962    -6.207352761
 H       10.254986190    11.615134565    -7.200092828
 H       10.323995857    10.419349583    -5.912966035
 H        7.606827395     7.244504853    -8.507500966
 H        6.722038549     6.795224553    -9.956700406
 H        5.992958055     7.915956610    -8.815501250
 H        7.005073105     9.972742645   -11.886535545
 H        5.631105909     9.531672463   -10.858248602
 H        6.406386301     8.319453888   -11.870725380
 H       -4.325774963    12.596192712    -3.666288683
 H       -6.037910195    12.211286267    -3.788264793
 H       -4.913486920    10.990211234    -3.207819505
 H       -6.930975403    12.128380926    -0.168697584
 H       -6.430797095    10.697220782    -1.093597488
 H       -7.487463940    11.898719268    -1.818598538
 H       -2.725151377    11.827949251     2.143513386
 H       -3.498927793    13.045509117     3.147414055
 H       -2.344447629    13.546024717     1.919153413
 H       -5.800281983    14.555610234     0.618312940
 H       -4.171952037    15.174176012     0.949584381
 H       -5.197991947    14.624340164     2.267606781
 H       -2.557480301    -1.625061631    -0.729121975
 H       -2.472447857    -1.599225717    -2.483614614
 H       -2.693832328    -0.090163240    -1.609177929
 H        0.903575871    -0.133221176    -2.959769488
 H       -0.607432102     0.797587245    -2.978764231
 H       -0.532989151    -0.791866896    -3.727057625
 H       -0.557466676    -2.983521157     0.678139988
 H       -0.670861550    -2.916968594     2.430193323
 H        0.862053556    -2.554587914     1.650773688
 H       -0.522209388     0.781457646     2.925300507
 H        0.858865633    -0.322447310     3.029161699
 H       -0.699392475    -0.788307815     3.698312014

