187   

Si        0.000000000     0.000000000     0.000000000
 C        1.865211873     0.000000000     0.000000000
 C       -0.675138201     1.712837009     0.000000000
 C        0.134700029     2.809283194    -0.312209355
 C       -0.389346325     4.102025048    -0.308565852
 C       -1.734910855     4.325604570    -0.006791323
 C       -2.546726365     3.225530927     0.301000662
 C       -2.024633570     1.935339016     0.306423015
 C       -2.328201650     5.657840986     0.009738069
 C       -1.666579477     6.796939352    -0.256628987
 C       -2.269756212     8.125432718    -0.237373712
 C       -1.467808473     9.235034369    -0.534628307
 C       -2.001763327    10.521060541    -0.527972715
 C       -3.352942602    10.725862334    -0.222781069
 C       -4.155749469     9.619975991     0.075527941
 C       -3.617749377     8.334308911     0.068753595
Si       -4.065702827    12.421826302    -0.211938123
 C       -5.888067161    12.313929076    -0.290263531
 C       -6.730314051    12.952696469     0.531757693
 C       -8.188594918    12.856675951     0.457017181
 C       -8.953041296    13.583092439     1.385875534
 C      -10.334818615    13.531704142     1.364401685
 C      -10.999072264    12.696446788     0.441303575
 C      -10.239849537    11.968546793    -0.486131577
 C       -8.851294950    12.074368121    -0.489068801
 N      -12.415467666    12.687952210     0.469044720
 C      -13.023100857    12.322877155     1.762375450
 C      -13.085137537    12.075977321    -0.688751876
 C      -13.119335855    10.813784658     2.064663294
 C      -11.768736320    10.177110421     2.437238561
 N      -11.132136931    10.820435580     3.611833718
 C       -9.766156487    10.492548246     3.799531772
 C       -8.896535793    10.499292926     2.690275691
 C       -7.556380849    10.184247356     2.836547273
 C       -7.014296921     9.901933619     4.099185312
 C       -7.868556406     9.926349112     5.203270410
 C       -9.221007635    10.221160785     5.066447595
 C      -11.971793537    10.768621668     4.820996875
 C       -5.590757517     9.573967134     4.202642393
 C       -4.968844430     9.288299911     5.354229881
Si       -3.198113718     8.872722564     5.542146107
 C       -3.014268653     7.335998003     6.538962524
 C       -4.105832108     6.483911238     6.735845568
 C       -3.967661500     5.319671624     7.490713098
 C       -2.734986431     4.974150017     8.051150493
 C       -1.640799878     5.825209523     7.845144447
 C       -1.776863857     6.991880101     7.097564619
 C       -2.544087099     3.766494904     8.847598475
 C       -3.507063612     2.869534057     9.119716151
 C       -3.316952640     1.661763046     9.916007327
 C       -2.087076647     1.317693383    10.482797700
 C       -1.950165140     0.152632723    11.237491581
 C       -3.041513311    -0.698560619    11.435952535
 C       -4.276113457    -0.356596295    10.867423431
 C       -4.410851487     0.809501797    10.119366175
Si       -2.879376001    -2.239937577    12.428786262
 C       -1.092882053    -2.642988629    12.784449041
 C       -3.798002971    -2.034063474    14.083280642
 C       -3.693393730    -3.659435915    11.456038310
 C       -2.414749040     8.574795759     3.835084057
 C       -2.296843256    10.292833529     6.428694872
 C       -3.525467641    13.289960894     1.392281848
 C       -3.421660191    13.404153292    -1.704079929
 C       -0.619131225    -0.923623935    -1.544417257
 C       -0.656549326    -0.896493598     1.545870747
 H        1.193604198     2.695874392    -0.559617405
 H        0.263634612     4.939322679    -0.547447478
 H       -3.596970468     3.378762861     0.542984345
 H       -2.704140427     1.116540747     0.559565391
 H       -3.393812195     5.678749536     0.260297885
 H       -0.603254177     6.778037826    -0.510397429
 H       -0.416191417     9.093345435    -0.774966618
 H       -1.329430855    11.348473767    -0.769876138
 H       -5.217803898     9.722564589     0.321976800
 H       -4.262364401     7.488805262     0.304469999
 H       -6.261084977    11.673491394    -1.105206190
 H       -6.386431059    13.606496739     1.345846347
 H       -8.452832330    14.201964554     2.131789026
 H      -10.914304676    14.122261818     2.071287895
 H      -10.721369947    11.321616907    -1.211574558
 H       -8.281209667    11.516900738    -1.232856229
 H      -14.171151320    12.255692065    -0.613178052
 H      -12.917481857    10.992508700    -0.792657115
 H      -12.736887925    12.576237076    -1.610609324
 H      -12.973416679    11.170597584     4.595963264
 H      -11.539590444    11.430438647     5.593538004
 H      -12.087157847     9.755710580     5.237966757
 H       -9.277183459    10.760767641     1.702740481
 H       -6.912008227    10.183960204     1.955028198
 H       -7.477143663     9.710827982     6.198475582
 H       -9.844663333    10.218002064     5.953947218
 H       -5.075586054     9.578510822     3.231426645
 H       -5.515543827     9.301225524     6.311384231
 H       -5.092758365     6.698335739     6.313145800
 H       -4.833064731     4.676058232     7.635823307
 H       -0.672173435     5.573050943     8.271980473
 H       -0.888940449     7.616979753     6.969336714
 H       -1.528051081     3.624752459     9.227504830
 H       -4.522758953     3.010985526     8.738973774
 H       -1.220816310     1.961045223    10.339520393
 H       -0.963477819    -0.062279896    11.656930222
 H       -5.163508952    -0.984272568    10.988063341
 H       -5.377943854     1.059055437     9.687058677
 H      -12.451588795    12.820607284     2.582750553
 H      -14.044475218    12.768472857     1.774021949
 H      -13.855204027    10.658013747     2.876056698
 H      -13.532539919    10.273583121     1.191592958
 H      -11.909014698     9.086265037     2.608734316
 H      -11.083647699    10.280514971     1.561547527
 H        2.263316763    -1.028549848     0.062245191
 H        2.260301260     0.561421218     0.866317150
 H        2.275143344     0.460312868    -0.915811765
 H       -1.002745469    -3.590146300    13.345655165
 H       -0.606904643    -1.853517919    13.384137917
 H       -0.518575817    -2.757040667    11.847162355
 H       -3.604901307    -2.985453089    14.658381449
 C       -3.258117189    -0.855400009    14.914117527
 C       -5.320929939    -1.871781311    13.930377312
 H       -4.774512546    -3.362695508    11.323725270
 C       -3.080859468    -3.841003807    10.055387345
 C       -3.662268085    -5.008655922    12.195827633
 H       -2.772213706     9.413143640     3.167827830
 C       -0.876950650     8.597105107     3.829516568
 C       -2.893037528     7.241951691     3.231745426
 H       -1.216976194     9.972203867     6.500783173
 C       -2.346042311    11.625082993     5.661803245
 C       -2.821150897    10.518244359     7.858550126
 H       -4.028596492    14.299775311     1.381653473
 C       -3.986215587    12.533313972     2.650423059
 C       -2.005775771    13.516228027     1.483700751
 H       -2.301607611    13.463016608    -1.580109766
 C       -3.713763231    12.701047743    -3.041817158
 C       -3.969441506    14.840974172    -1.761404036
 H       -0.124468856    -1.937246342    -1.512630003
 C       -2.143221886    -1.137796360    -1.564933171
 C       -0.201432610    -0.229810830    -2.854088796
 H       -1.780691589    -0.909035011     1.441773738
 C       -0.178411721    -2.355068578     1.658611093
 C       -0.313206112    -0.153122964     2.849212058
 H       -2.187873187    -0.936949119    15.143479797
 H       -3.776929491    -0.807851195    15.882259759
 H       -3.421151314     0.118282072    14.429822803
 H       -5.799238860    -2.710429579    13.409059397
 H       -5.600394959    -0.945570796    13.408717660
 H       -5.793743804    -1.818193288    14.921936637
 H       -3.116488554    -2.927397849     9.444626495
 H       -3.638392519    -4.605660653     9.496145352
 H       -2.036540048    -4.178933419    10.084084852
 H       -4.148091971    -4.976360486    13.179581618
 H       -2.644654500    -5.395947480    12.337753860
 H       -4.201229289    -5.768988305    11.612069588
 H       -0.452696100     9.545305343     4.181104804
 H       -0.509032877     8.458961011     2.801210016
 H       -0.434757219     7.785289195     4.422534924
 H       -3.982745757     7.181594672     3.111724543
 H       -2.572622671     6.365123684     3.812379855
 H       -2.460792453     7.111107336     2.227617740
 H       -1.925153298    11.559427728     4.649258359
 H       -1.756884585    12.387071849     6.190937537
 H       -3.365467960    12.027575292     5.575808125
 H       -2.772558118     9.618076250     8.487256533
 H       -3.856637409    10.884233001     7.881902633
 H       -2.213219621    11.279474688     8.367414777
 H       -5.067121692    12.333528721     2.684272440
 H       -3.758772293    13.123053355     3.549788153
 H       -3.474566519    11.567692396     2.774382645
 H       -1.604271119    14.124871026     0.664137323
 H       -1.434670639    12.577540739     1.516719702
 H       -1.762081845    14.055210062     2.410938000
 H       -3.313941514    11.678573542    -3.093213682
 H       -3.245882644    13.254412669    -3.868623236
 H       -4.786517494    12.650754214    -3.273534758
 H       -3.720353711    15.437572547    -0.874336791
 H       -5.060490113    14.878533883    -1.892278072
 H       -3.538734037    15.374193480    -2.621063153
 H       -2.515156128    -1.706124332    -0.703012171
 H       -2.429272859    -1.713363751    -2.457300380
 H       -2.706003416    -0.195074037    -1.616406869
 H        0.884340688    -0.105989484    -2.955885132
 H       -0.662405602     0.760706857    -2.977845659
 H       -0.524146346    -0.829088986    -3.717445237
 H       -0.447038946    -2.969705259     0.789985950
 H       -0.644869972    -2.835790220     2.531012041
 H        0.906357662    -2.439838599     1.806047029
 H       -0.676449541     0.884864102     2.866023037
 H        0.763992033    -0.129385931     3.060016481
 H       -0.785021245    -0.655809483     3.705923453

