187   

Si        0.000000000     0.000000000     0.000000000
 C        1.863496831     0.000000000     0.000000000
 C       -0.595381738     1.748025597     0.000000000
 C       -0.301657110     2.594726254    -1.076354123
 C       -0.746092762     3.916331781    -1.086905488
 C       -1.466695987     4.433026443    -0.007115650
 C       -1.747547214     3.591373217     1.075167752
 C       -1.319373501     2.266779729     1.078870123
 C       -1.958680062     5.803722427     0.043466124
 C       -1.790824771     6.730858950    -0.914633375
 C       -2.303115299     8.094379433    -0.818961644
 C       -2.078077145     8.991326578    -1.870040415
 C       -2.555222408    10.300220935    -1.807183269
 C       -3.278960768    10.737158060    -0.693462962
 C       -3.513014035     9.837909176     0.355476096
 C       -3.033773355     8.532948947     0.290271822
Si       -3.943080866    12.447202612    -0.532473848
 C       -3.837962268    12.963054722     1.222196773
 C       -2.883650110    12.503216296     2.042874130
 C       -2.739118254    12.870437266     3.450583937
 C       -1.683653570    12.301230088     4.180136315
 C       -1.491580177    12.606968096     5.515405104
 C       -2.405853497    13.443886772     6.193671606
 C       -3.469557779    14.007114817     5.465537700
 C       -3.610103374    13.740255769     4.107861574
 N       -2.184738986    13.737107055     7.550560946
 C       -1.661134851    12.643400502     8.395157277
 C       -3.178397476    14.587319900     8.223257164
 C       -2.315792780    11.264102106     8.202698660
 C       -3.740624941    11.171466006     8.780768562
 N       -4.703438873    10.467641442     7.918225349
 C       -4.533835705     9.088024090     7.704981151
 C       -3.586613283     8.327910817     8.418563374
 C       -3.452781882     6.968394558     8.176011168
 C       -4.297791831     6.301515602     7.279797000
 C       -5.260830919     7.051608371     6.596182020
 C       -5.380739685     8.418826305     6.795990663
 C       -5.117294978    11.247050718     6.736437137
 C       -4.107643119     4.865999413     7.065366419
 C       -4.847891235     4.117210913     6.237069861
Si       -4.626557752     2.323333821     5.955211022
 C       -4.549686341     1.940153144     4.158292109
 C       -4.644605183     2.947671969     3.192076440
 C       -4.583386207     2.629753893     1.837096012
 C       -4.428669020     1.302667152     1.417811840
 C       -4.340850451     0.297662526     2.385729778
 C       -4.406105519     0.611310814     3.741347067
 C       -4.369806529     1.019030574    -0.011524874
 C       -4.228275444    -0.209330692    -0.536862473
 C       -4.169218033    -0.494891879    -1.965681746
 C       -4.256433146     0.505175234    -2.937437855
 C       -4.195331542     0.186882255    -4.293968965
 C       -4.049318134    -1.141312133    -4.705820379
 C       -3.964061228    -2.146561316    -3.733047851
 C       -4.023954474    -1.825926223    -2.380130752
Si       -3.967277520    -1.575780593    -6.491828419
 C       -4.673940917    -0.223128645    -7.562655214
 C       -2.138372582    -1.853662902    -6.946508673
 C       -4.911212080    -3.203493553    -6.775931565
 C       -3.007985488     1.740017206     6.774624232
 C       -6.095156652     1.382763192     6.710774332
 C       -2.956394484    13.655029274    -1.618056768
 C       -5.763961000    12.473468392    -1.075959316
 C       -0.688496640    -0.928300984    -1.518870873
 C       -0.705752720    -0.862392030     1.551159554
 H        0.281987056     2.255430931    -1.937081426
 H       -0.517892190     4.548196216    -1.942011041
 H       -2.299935408     3.973249839     1.933832330
 H       -1.593203445     1.661350851     1.949554539
 H       -2.502258668     6.052789269     0.962264835
 H       -1.248458672     6.499954837    -1.833646566
 H       -1.519541106     8.667968022    -2.745927696
 H       -2.344977060    10.957404764    -2.654596853
 H       -4.077727639    10.121084722     1.251529166
 H       -3.231105097     7.855046740     1.119889012
 H       -4.594061280    13.684494892     1.557981789
 H       -2.113835534    11.788005896     1.711183367
 H       -0.988694413    11.621547212     3.682699124
 H       -0.630231320    12.202401650     6.040292727
 H       -4.184543502    14.667319210     5.944281786
 H       -4.428195190    14.208001036     3.558551026
 H       -2.854272944    14.795460340     9.257099874
 H       -4.191777117    14.155648089     8.254323355
 H       -3.225610941    15.564212125     7.705892900
 H       -4.951605567    12.325342262     6.893031482
 H       -6.199874045    11.100197012     6.572929573
 H       -4.574738457    10.963255432     5.817819888
 H       -2.936857872     8.796110640     9.150233798
 H       -2.685042706     6.408830508     8.711508159
 H       -5.931881970     6.558366263     5.891443932
 H       -6.141508922     8.970078238     6.250814328
 H       -3.276516749     4.453750851     7.653871608
 H       -5.682981475     4.557350638     5.668719628
 H       -4.761202092     4.001396887     3.462559921
 H       -4.660358693     3.423888676     1.094909267
 H       -4.226396450    -0.742398839     2.086114755
 H       -4.342929457    -0.217471000     4.451928738
 H       -4.439873198     1.899447335    -0.657985225
 H       -4.148762298    -1.087585615     0.109757694
 H       -4.367906669     1.547254755    -2.640809701
 H       -4.269435395     1.011099109    -5.008762069
 H       -3.850709265    -3.201290337    -3.997489127
 H       -3.958797289    -2.619999694    -1.638933474
 H       -0.568818420    12.563462302     8.169650106
 H       -1.724841034    12.947111872     9.462918142
 H       -2.337710817    10.994926353     7.125961272
 H       -1.667430192    10.494913336     8.664455257
 H       -3.728826143    10.662577180     9.771907661
 H       -4.152150265    12.186755152     8.980024262
 H        2.261573242    -1.028661338     0.047856309
 H        2.262877519     0.555968618     0.867189844
 H        2.263426938     0.473564356    -0.914023267
 H       -4.652889027    -0.507439229    -8.629800684
 H       -4.109828288     0.720300040    -7.458719255
 H       -5.726363092    -0.016876311    -7.294727901
 H       -2.133786965    -2.159558422    -8.032030167
 C       -1.290505721    -0.576045574    -6.806944774
 C       -1.473413746    -2.976504643    -6.129499185
 H       -4.382836445    -3.983278567    -6.153803207
 C       -6.372125436    -3.128468224    -6.296220378
 C       -4.888718475    -3.678299788    -8.239893579
 H       -3.033507945     2.156258527     7.823459094
 C       -2.859462088     0.212251870     6.883043212
 C       -1.765817393     2.304310140     6.059683677
 H       -5.890744877     0.288773715     6.523680637
 C       -6.227751861     1.592609224     8.229168647
 C       -7.431982845     1.736597620     6.035010207
 H       -3.062916434    13.279865055    -2.677029293
 C       -3.494881694    15.096126544    -1.568590171
 C       -1.458392787    13.670394617    -1.263658166
 H       -6.113168777    13.538327912    -0.945542948
 C       -5.959535747    12.082847793    -2.551306125
 C       -6.649504475    11.570096057    -0.198392517
 H       -1.728021141    -1.254026970    -1.215115818
 C       -0.833442017    -0.075096278    -2.790439400
 C        0.118950390    -2.188506441    -1.884130879
 H       -1.790627274    -0.543569055     1.594854116
 C       -0.681731471    -2.400368591     1.501675183
 C       -0.023716746    -0.410547255     2.856468676
 H       -1.645628735     0.252504502    -7.432914778
 H       -0.255653231    -0.775389631    -7.120320647
 H       -1.232725415    -0.210634324    -5.771084762
 H       -1.970415067    -3.948592428    -6.238414044
 H       -1.416361958    -2.745961742    -5.055626312
 H       -0.437003549    -3.122935545    -6.466735329
 H       -6.468011654    -2.841849810    -5.239070907
 H       -6.852205320    -4.112638014    -6.392429597
 H       -6.981214873    -2.429001361    -6.884182537
 H       -3.875015323    -3.827958140    -8.633162779
 H       -5.414138722    -2.995068845    -8.920258104
 H       -5.397840930    -4.649243092    -8.326969908
 H       -3.693042057    -0.272829436     7.406065897
 H       -1.954177039    -0.034891092     7.456813207
 H       -2.742638061    -0.276046416     5.906023739
 H       -1.763748016     3.400571228     5.981419059
 H       -1.641552152     1.903954883     5.042667058
 H       -0.855721357     2.032692464     6.612201512
 H       -5.336756610     1.284602127     8.791284816
 H       -7.061561337     0.992556268     8.620793706
 H       -6.446711453     2.635890857     8.499001870
 H       -7.429367506     1.565372202     4.949316134
 H       -7.737464071     2.777605554     6.207857458
 H       -8.236952158     1.107578510     6.441331975
 H       -4.541480717    15.181987499    -1.887073029
 H       -2.914695996    15.737043693    -2.248251470
 H       -3.408727692    15.550356991    -0.571591040
 H       -0.983186733    12.681681344    -1.328433105
 H       -1.262585287    14.063987699    -0.255471135
 H       -0.911870102    14.321171210    -1.960485357
 H       -5.427421045    12.740176361    -3.250810883
 H       -7.023997248    12.146687223    -2.819676973
 H       -5.652157961    11.048922171    -2.764452064
 H       -6.607528452    11.822583549     0.869758017
 H       -6.401174980    10.503434973    -0.297734032
 H       -7.702435170    11.668749392    -0.497976348
 H       -1.486811352     0.798410387    -2.650247911
 H       -1.313078952    -0.672263925    -3.583019793
 H        0.124873508     0.269419510    -3.194117777
 H        0.247606106    -2.889329164    -1.050537330
 H        1.117264688    -1.950730911    -2.274557349
 H       -0.399733938    -2.745239609    -2.678158856
 H       -1.257206565    -2.814383909     0.663682678
 H       -1.130784416    -2.812674393     2.416621613
 H        0.334291401    -2.811169094     1.446327009
 H        0.007197969     0.679496312     2.988492973
 H        1.007175064    -0.778696574     2.942594832
 H       -0.570502503    -0.807287960     3.723636401

