187   

Si        0.000000000     0.000000000     0.000000000
 C        1.865418837     0.000000000     0.000000000
 C       -0.679838194     1.710853883     0.000000000
 C        0.145348761     2.818123080    -0.219813983
 C       -0.383876742     4.108778410    -0.216971459
 C       -1.747772989     4.321439921    -0.000875951
 C       -2.573787269     3.210406725     0.217094684
 C       -2.048203864     1.921490364     0.218609948
 C       -2.345902889     5.652396768     0.010901868
 C       -1.669304465     6.797709374    -0.180167388
 C       -2.268719990     8.128038740    -0.168130360
 C       -1.444250768     9.240803583    -0.381991823
 C       -1.972066488    10.529413073    -0.379250227
 C       -3.342363876    10.733438219    -0.175493940
 C       -4.168350258     9.624464695     0.036258112
 C       -3.634368935     8.336512068     0.044092857
Si       -4.054443549    12.429602880    -0.169147013
 C       -5.835419447    12.345975927    -0.569550087
 C       -6.827244336    12.924149242     0.120228240
 C       -8.242089266    12.826747866    -0.243102775
 C       -9.195735395    13.475032137     0.555073040
 C      -10.546120418    13.413185574     0.253758058
 C      -10.990732853    12.729225303    -0.899210450
 C      -10.034199131    12.077949818    -1.701091798
 C       -8.688510552    12.113022455    -1.358208036
 N      -12.362846325    12.675701550    -1.190577289
 C      -13.188009825    13.838913425    -0.820162480
 C      -12.759670748    12.027831962    -2.448742307
 C      -12.709768409    15.190547547    -1.377138784
 C      -13.061607504    15.422578833    -2.856426530
 N      -14.457475238    15.812682554    -3.121226586
 C      -14.962948531    16.930776670    -2.439054715
 C      -14.105626059    18.012473619    -2.138649763
 C      -14.587651218    19.123095625    -1.466396796
 C      -15.940510831    19.226904412    -1.110755892
 C      -16.793069477    18.169164091    -1.435850805
 C      -16.323607317    17.039359210    -2.094114136
 C      -15.372453564    14.682225345    -3.333048025
 C      -16.395323205    20.423289868    -0.401017309
 C      -17.660280067    20.632410554    -0.011545736
Si      -18.229928779    22.126484621     0.875165907
 C      -16.904623880    22.853684855     1.923241467
 C      -15.957697850    22.015276795     2.526514300
 C      -14.948075178    22.549076410     3.322778798
 C      -14.866659153    23.929613141     3.548008831
 C      -15.818037061    24.762311696     2.952423039
 C      -16.827796972    24.231425470     2.150481762
 C      -13.790269981    24.441077834     4.389991780
 C      -13.596506684    25.738659779     4.681001851
 C      -12.519937387    26.249761699     5.523073836
 C      -11.568651015    25.417636852     6.118659419
 C      -10.555732355    25.949330137     6.916822279
 C      -10.476531960    27.327088956     7.142026525
 C      -11.430295516    28.163805735     6.546488280
 C      -12.436705837    27.630875630     5.746140116
Si       -9.146221867    28.045068352     8.192686655
 C       -8.236873866    26.724841046     9.146534961
 C       -7.898594106    28.971487519     7.093294041
 C       -9.943350214    29.292123874     9.389778484
 C      -18.834305046    23.402896015    -0.399738401
 C      -19.692132098    21.638826633     1.990182164
 C       -3.762235611    13.216785839     1.536902298
 C       -3.187611765    13.492202358    -1.488496998
 C       -0.606180227    -0.926677569    -1.548338573
 C       -0.660334852    -0.898529938     1.542583693
 H        1.219594873     2.714898107    -0.395507836
 H        0.280136031     4.953885289    -0.389132041
 H       -3.639100501     3.353979204     0.387776268
 H       -2.740909441     1.093954676     0.396180704
 H       -3.424684708     5.666667634     0.192501531
 H       -0.590648799     6.782786298    -0.361486541
 H       -0.378315060     9.099752445    -0.549145505
 H       -1.280577788    11.359649332    -0.546306730
 H       -5.246017692     9.726588777     0.202562944
 H       -4.295950973     7.489243502     0.215083974
 H       -6.044873933    11.758356733    -1.479379643
 H       -6.653580411    13.520784541     1.025183742
 H       -8.872995805    14.029439823     1.437277457
 H      -11.262180064    13.894649793     0.913834827
 H      -10.330839070    11.534861831    -2.591935034
 H       -7.970693494    11.584036931    -1.987863204
 H      -13.857356856    12.040619375    -2.551738142
 H      -12.456411685    10.963891574    -2.415601265
 H      -12.317057022    12.491397540    -3.345728129
 H      -14.860019758    13.878032702    -3.886515816
 H      -16.215115764    15.016946276    -3.967765808
 H      -15.781538685    14.261324082    -2.399936920
 H      -13.060278436    17.979058027    -2.432603390
 H      -13.903205578    19.938108533    -1.224982479
 H      -17.850495476    18.223760557    -1.172413916
 H      -17.021880465    16.242366582    -2.324890250
 H      -15.587569621    21.143779825    -0.207413359
 H      -18.452370080    19.899807142    -0.227781271
 H      -15.975581477    20.928577962     2.390644020
 H      -14.216815097    21.882997696     3.776744381
 H      -15.778159740    25.838179306     3.111732608
 H      -17.542710728    24.933015126     1.712129404
 H      -13.119181897    23.675166716     4.789810016
 H      -14.267510619    26.504748836     4.281555044
 H      -11.610441371    24.341224373     5.963049328
 H       -9.839731686    25.248153261     7.354415763
 H      -11.418935096    29.248263764     6.688113583
 H      -13.167368582    28.296849186     5.291040895
 H      -14.239079675    13.644297406    -1.126130615
 H      -13.212312694    13.885753095     0.295992371
 H      -13.137997477    16.006711083    -0.759071745
 H      -11.610803208    15.278895714    -1.250423674
 H      -12.408508277    16.229533615    -3.270478224
 H      -12.822130203    14.518021597    -3.457170476
 H        2.263317154    -1.029808409     0.039165066
 H        2.262618460     0.542083259     0.877338196
 H        2.273823884     0.479872151    -0.906690532
 H       -7.469788924    27.167526628     9.806849367
 H       -7.726231515    26.013145255     8.474427697
 H       -8.930648891    26.148090600     9.784839417
 H       -7.081355936    29.321078149     7.788453164
 C       -7.261760576    28.059677275     6.028384390
 C       -8.489323690    30.208255363     6.393064943
 H      -10.429439644    30.076850256     8.739910960
 C      -11.042575240    28.654346817    10.258547112
 C       -8.928364318    30.000560465    10.304508308
 H      -19.226293368    24.278190105     0.194386092
 C      -17.696107048    23.907990962    -1.304457145
 C      -19.979981323    22.879668657    -1.284484670
 H      -20.478801482    21.211129179     1.304012260
 C      -19.308453585    20.553723915     3.012444651
 C      -20.308311799    22.834383822     2.737348975
 H       -4.304804523    14.206085595     1.519539246
 C       -4.346313063    12.368638846     2.681574711
 C       -2.277557191    13.492858106     1.834506100
 H       -2.101783235    13.541071962    -1.185653831
 C       -3.261810291    12.865849624    -2.892401350
 C       -3.728903339    14.931385167    -1.551458771
 H       -0.094621901    -1.932146053    -1.519540746
 C       -2.126179613    -1.166926180    -1.573327190
 C       -0.197894042    -0.220633957    -2.854508033
 H       -1.785161672    -0.890019255     1.446435739
 C       -0.206666380    -2.365997469     1.639956862
 C       -0.294589332    -0.172282550     2.849746158
 H       -6.743738520    27.189438433     6.451483055
 H       -6.506734713    28.618455047     5.456882995
 H       -7.990399277    27.688023413     5.293560912
 H       -8.896117255    30.951620329     7.090213435
 H       -9.278366075    29.953653799     5.671617646
 H       -7.705661648    30.723834308     5.818766050
 H      -11.838310672    28.176369789     9.669373209
 H      -11.534212351    29.424471723    10.869958682
 H      -10.654515444    27.903973664    10.960016991
 H       -8.149577065    30.542293826     9.752347284
 H       -8.428851633    29.315022397    11.001827673
 H       -9.441990858    30.749191240    10.925270920
 H      -16.860236538    24.354166220    -0.747899299
 H      -18.069203606    24.690515459    -1.979914925
 H      -17.279738459    23.118620760    -1.947291430
 H      -20.866088564    22.572825924    -0.714634974
 H      -19.678185078    22.033782900    -1.918053143
 H      -20.315832805    23.670995810    -1.970180158
 H      -18.911267834    19.639637010     2.550591033
 H      -20.193557637    20.248823602     3.588522233
 H      -18.569014203    20.902517166     3.747820519
 H      -20.694720680    23.613961689     2.068562459
 H      -19.605880837    23.310738358     3.436389673
 H      -21.162517453    22.499363744     3.343438677
 H       -5.418662768    12.157643608     2.570096088
 H       -4.232970641    12.897109494     3.638557587
 H       -3.833178725    11.403249985     2.800532468
 H       -1.809753494    14.179748750     1.117904862
 H       -1.670425974    12.577179470     1.869278927
 H       -2.174162701    13.964627291     2.822595097
 H       -2.856296275    11.845159295    -2.936419365
 H       -2.670745922    13.461472191    -3.602543004
 H       -4.284247527    12.834373390    -3.293170275
 H       -3.625407387    15.477109315    -0.604776159
 H       -4.786376305    14.978384246    -1.848593386
 H       -3.172627362    15.510134762    -2.302627802
 H       -2.493235052    -1.732309562    -0.707521260
 H       -2.397641979    -1.756561271    -2.461197014
 H       -2.704157714    -0.234420627    -1.638430805
 H        0.886237771    -0.082847763    -2.956253901
 H       -0.670834227     0.764966109    -2.972743904
 H       -0.513892874    -0.819272792    -3.720821024
 H       -0.494891974    -2.969086451     0.769337878
 H       -0.672693129    -2.845249239     2.513271963
 H        0.877920414    -2.470926891     1.775359503
 H       -0.639297198     0.871412074     2.877080366
 H        0.784550528    -0.169752473     3.052360198
 H       -0.768933425    -0.674294054     3.705068826

