187   

Si        0.000000000     0.000000000     0.000000000
 C        1.865542580     0.000000000     0.000000000
 C       -0.678338774     1.711295658     0.000000000
 C        0.146205181     2.816843968     0.230584463
 C       -0.381138444     4.108173362     0.227758723
 C       -1.742960720     4.323609412     0.001383043
 C       -2.568459057     3.214363496    -0.227166245
 C       -2.044570794     1.924697551    -0.228972656
 C       -2.338232727     5.655760844    -0.010622109
 C       -1.660213227     6.798632304     0.189885336
 C       -2.254957928     8.131100918     0.177995974
 C       -3.617532515     8.345935730    -0.048555349
 C       -4.144148627     9.636839128    -0.051281989
 C       -3.313761108    10.742794532     0.159483567
 C       -1.947818065    10.531668490     0.384946209
 C       -1.427567947     9.239983202     0.398492161
Si       -3.995503888    12.451471190     0.158418873
 C       -2.665053467    13.642067715    -0.229034938
 C       -2.372156144    14.750087539     0.464129853
 C       -1.293187311    15.674760833     0.112295023
 C       -1.078218085    16.805456492     0.913197839
 C       -0.070178422    17.710102764     0.622001050
 C        0.800267331    17.485157147    -0.466473176
 C        0.585336545    16.349514659    -1.270543719
 C       -0.459490775    15.478180056    -0.991956684
 N        1.819953696    18.411783337    -0.751443946
 C        2.444137647    19.093244487     0.397613001
 C        2.796325831    18.027391996    -1.785693782
 C        3.128757446    18.123528726     1.377526439
 C        4.146605616    18.816898301     2.297945242
 N        5.276377003    19.494841736     1.620658601
 C        5.748701103    18.860151009     0.449017436
 C        6.114720695    17.500081404     0.536279116
 C        6.583280665    16.831769675    -0.581688872
 C        6.734449079    17.493881394    -1.810227315
 C        6.395621190    18.846156601    -1.884999225
 C        5.918055508    19.530799170    -0.772456614
 C        5.128595981    20.958084846     1.562799137
 C        7.234281810    16.739295258    -2.961609800
 C        7.417523279    17.266698597    -4.178711455
Si        8.036783719    16.378346471    -5.651208047
 C        9.405136558    17.331608035    -6.425034386
 C       10.124517549    18.269069482    -5.676379375
 C       11.162879736    18.993529985    -6.260712888
 C       11.510964293    18.790391441    -7.598936771
 C       10.792238456    17.846183688    -8.344411026
 C        9.751964704    17.123764092    -7.765850902
 C       12.589659811    19.525165671    -8.251627583
 C       13.353852205    20.454405130    -7.652933740
 C       14.432530088    21.189245684    -8.305410502
 C       14.778463861    20.989808459    -9.644307024
 C       15.817358844    21.714687235   -10.228219435
 C       16.538669768    22.651342127    -9.481273428
 C       16.194257189    22.852506684    -8.137652289
 C       15.152968533    22.132029574    -7.559509017
Si       17.912453635    23.616158110   -10.236733443
 C       18.416493216    22.914122596   -11.889845529
 C       17.359478795    25.420885910   -10.482674827
 C       19.388352091    23.593119307    -9.034687450
 C        8.665373802    14.642195425    -5.198276517
 C        6.599115937    16.203961322    -6.885735568
 C       -5.345050589    12.598980158    -1.175427700
 C       -4.775554754    12.808695086     1.855248672
 C       -0.659310044    -0.898933683    -1.542850371
 C       -0.606226222    -0.928523292     1.547190661
 H        1.218917295     2.711604727     0.414767539
 H        0.282888224     4.951910300     0.406674984
 H       -3.631985857     3.359895077    -0.406568730
 H       -2.736870033     1.098972214    -0.416169637
 H       -3.415462508     5.673644380    -0.200205917
 H       -0.583005849     6.780541556     0.379865964
 H       -4.281774438     7.501667683    -0.222653929
 H       -5.217882125     9.742695938    -0.228245708
 H       -1.253656671    11.361018744     0.557042916
 H       -0.364463301     9.093610055     0.579682762
 H       -2.094721897    13.371650167    -1.133720875
 H       -2.924469838    15.052307146     1.363370431
 H       -1.722092873    16.986436114     1.774218232
 H        0.045290955    18.595133362     1.240462770
 H        1.225858623    16.142467777    -2.122257688
 H       -0.614355907    14.615421057    -1.642179475
 H        3.566945462    18.811803303    -1.892501090
 H        2.279427494    17.947745504    -2.758768760
 H        3.316938157    17.078970147    -1.572854615
 H        4.967524752    21.340600747     2.586436904
 H        4.303024006    21.309618338     0.924854743
 H        6.072146970    21.407689431     1.203751873
 H        6.031879843    16.982001186     1.488985731
 H        6.850608662    15.777524836    -0.500381776
 H        6.509139537    19.385148915    -2.827248473
 H        5.664806109    20.581785340    -0.869943538
 H        7.451323736    15.688602032    -2.729115589
 H        7.183559088    18.325942294    -4.379975710
 H        9.900267023    18.466520077    -4.622986223
 H       11.705489211    19.721203026    -5.659865556
 H       11.047782579    17.673209169    -9.388029971
 H        9.225859196    16.401484758    -8.395878908
 H       12.749052489    19.266021706    -9.302396592
 H       13.194488662    20.713233190    -6.601958881
 H       14.235777562    20.263351797   -10.246312690
 H       16.040533726    21.515979613   -11.280095115
 H       16.723462624    23.570789305    -7.504937550
 H       14.899002036    22.303448017    -6.515143880
 H        3.178434848    19.828317334    -0.004159411
 H        1.668206995    19.696235024     0.919003318
 H        2.364269504    17.610408165     1.993469299
 H        3.625097682    17.311368242     0.807885464
 H        3.625073839    19.544322602     2.957040417
 H        4.600138653    18.054478976     2.977539382
 H        2.263201760    -1.029902906    -0.038702179
 H        2.274509609     0.480582357     0.906021173
 H        2.261883305     0.541515871    -0.878087872
 H       19.269546343    23.472194240   -12.315598189
 H       17.591601430    22.958526450   -12.622289791
 H       18.726272100    21.857596192   -11.793656415
 H       18.221506680    25.935647564   -10.997685538
 C       16.121432959    25.539519362   -11.390412396
 C       17.077936928    26.166226505    -9.165807014
 H       19.018415844    24.072265380    -8.081797097
 C       19.848368222    22.163903526    -8.694609179
 C       20.597858909    24.404729761    -9.531575096
 H        7.819745979    14.140587118    -4.644378458
 C        9.006881299    13.778719164    -6.425813247
 C        9.891564237    14.685658369    -4.268263876
 H        7.009734871    15.622941048    -7.761556346
 C        5.405149919    15.421190335    -6.311598929
 C        6.102963822    17.563638000    -7.408935130
 H       -6.152497779    11.866970319    -0.883574493
 C       -5.974863643    14.001348706    -1.241154869
 C       -4.835721166    12.211087495    -2.575076080
 H       -5.087773255    13.892855852     1.831218482
 C       -6.027224960    11.959629646     2.141133331
 C       -3.776996035    12.621164364     3.012227810
 H       -1.784150097    -0.892048645    -1.446726966
 C       -0.294853797    -0.171391162    -2.849697278
 C       -0.203629692    -2.365599450    -1.641468164
 H       -0.102191189    -1.937543842     1.511982706
 C       -0.187966285    -0.231081315     2.854735035
 C       -2.127806322    -1.158159013     1.576539596
 H       16.268272208    25.105637031   -12.387823097
 H       15.871401673    26.598191316   -11.550110113
 H       15.225619449    25.074726033   -10.953981861
 H       17.941146541    26.197792948    -8.489044071
 H       16.228132124    25.744662405    -8.610651982
 H       16.815642227    27.213384617    -9.376260251
 H       19.046116017    21.537198138    -8.279337828
 H       20.639941969    22.193831437    -7.932293633
 H       20.270291052    21.631845866    -9.557482655
 H       20.363157085    25.458861981    -9.727976421
 H       21.049180825    23.987351103   -10.441431863
 H       21.389549131    24.403568149    -8.768143041
 H        8.150999631    13.609407902    -7.091417000
 H        9.343882472    12.782961351    -6.102243434
 H        9.825826560    14.195805998    -7.028890828
 H        9.722503102    15.251456198    -3.341981249
 H       10.779950681    15.113369746    -4.755577971
 H       10.169457109    13.667288299    -3.962071201
 H        5.664034362    14.402070801    -5.996559183
 H        4.622020448    15.315934412    -7.076071678
 H        4.934082583    15.925257573    -5.455522273
 H        6.896174781    18.168821969    -7.870429236
 H        5.628952304    18.175575649    -6.629395716
 H        5.341701850    17.412446600    -8.187547294
 H       -6.441447775    14.313856960    -0.298174926
 H       -6.770476691    14.021771365    -1.999460546
 H       -5.254859064    14.780636737    -1.530240836
 H       -4.406941907    11.199975858    -2.618049444
 H       -4.081381018    12.908674048    -2.964448476
 H       -5.666410892    12.222670801    -3.294862483
 H       -6.834716593    12.115604954     1.414587858
 H       -6.444489389    12.224582009     3.123505482
 H       -5.813809321    10.882101223     2.181452034
 H       -2.865743207    13.225959435     2.909233624
 H       -3.463330367    11.574648224     3.137600658
 H       -4.240414465    12.919396313     3.963008562
 H       -0.640423582     0.872048313    -2.876027824
 H       -0.768820224    -0.672950745    -3.705423394
 H        0.784240101    -0.167644468    -3.052606346
 H       -0.493944105    -2.970561036    -0.772824009
 H        0.881505805    -2.469052146    -1.773635940
 H       -0.666191953    -2.843919102    -2.517076705
 H        0.897591227    -0.102441145     2.953233481
 H       -0.505781855    -0.830636476     3.719772464
 H       -0.652591195     0.757782526     2.978623605
 H       -2.501263474    -1.719607081     0.710942762
 H       -2.699076715    -0.221657274     1.644437231
 H       -2.401039718    -1.747195101     2.464271392

