187   

Si        0.000000000     0.000000000     0.000000000
 C        1.865254762     0.000000000     0.000000000
 C       -0.673776581     1.713132127     0.000000000
 C        0.104641622     2.790278387    -0.436002024
 C       -0.411753222     4.085838536    -0.433517541
 C       -1.717374046     4.333936201    -0.001659202
 C       -2.497919875     3.252868127     0.429257097
 C       -1.985347875     1.958484339     0.427897413
 C       -2.299710353     5.671629423     0.018475407
 C       -1.662103529     6.790131254    -0.366683604
 C       -2.245002503     8.127605287    -0.346317042
 C       -3.550908282     8.373457033     0.085958871
 C       -4.068505660     9.668378379     0.088963033
 C       -3.295531710    10.743163077    -0.360818868
 C       -1.986875750    10.499573597    -0.799106696
 C       -1.468062877     9.208005829    -0.785670213
Si       -3.948877653    12.464293580    -0.369843416
 C       -3.323983959    13.395927193    -1.814969298
 C       -3.017377786    12.822487180    -2.986544964
 C       -2.515970039    13.542864667    -4.158285287
 C       -2.233833257    12.816586005    -5.325495712
 C       -1.757425046    13.446339263    -6.463367656
 C       -1.514606031    14.835908244    -6.459650118
 C       -1.815052455    15.567257180    -5.298245726
 C       -2.340454072    14.927861071    -4.179967933
 N       -1.028375027    15.440426994    -7.641858836
 C        0.127516722    14.786615559    -8.287911399
 C       -0.909864345    16.908414885    -7.622212736
 C        1.466581033    14.925213452    -7.537787758
 C        1.754387468    13.710272824    -6.633798318
 N        2.776296710    13.971454883    -5.597901242
 C        2.454228585    14.995365438    -4.678129598
 C        1.132247395    15.067244447    -4.192392508
 C        0.771003224    16.050418200    -3.292362897
 C        1.722814621    16.940610102    -2.768766455
 C        3.039500368    16.844858706    -3.216567582
 C        3.407258135    15.889551181    -4.161704539
 C        4.143044583    13.985969831    -6.145547038
 C        1.242368276    17.945296036    -1.823691671
 C        1.976374045    18.884283058    -1.209897242
Si        1.138118531    20.041321432    -0.056600964
 C       -0.271719225    19.077808060     0.639874905
 C       -0.009392241    17.908242748     1.366535464
 C       -1.054216617    17.162546092     1.902776592
 C       -2.386156699    17.553746908     1.709575344
 C       -2.645839348    18.714033027     0.977314996
 C       -1.599569956    19.469366973     0.448188412
 C       -3.445890423    16.739660973     2.291203845
 C       -4.759953777    17.003030158     2.193567323
 C       -5.807197668    16.176387605     2.782591479
 C       -5.519898292    15.019061784     3.511438463
 C       -6.541956493    14.249679089     4.062249456
 C       -7.880753208    14.614269352     3.879521744
 C       -8.172908318    15.766629104     3.140429719
 C       -7.147422462    16.536748659     2.596436641
Si       -9.206668152    13.575903916     4.620605161
 C       -8.677044124    12.878786589     6.266473781
 C      -10.804216276    14.588000138     4.816185973
 C       -9.534557407    12.149332126     3.399251175
 C        2.322929534    20.629703044     1.304347431
 C        0.528850704    21.563408750    -1.023923180
 C       -5.844887363    12.501950512    -0.285074898
 C       -3.271899577    13.293471418     1.206550983
 C       -0.625466263    -0.911269798    -1.549528415
 C       -0.650807607    -0.915542509     1.537272850
 H        1.132908340     2.658991734    -0.784066503
 H        0.216011856     4.907308131    -0.774101079
 H       -3.517729487     3.423799700     0.768685357
 H       -2.642175303     1.155556370     0.773764908
 H       -3.330867260     5.715898064     0.380663032
 H       -0.630696477     6.746090606    -0.729004348
 H       -4.175970637     7.551709467     0.429497623
 H       -5.093564002     9.799677242     0.446206487
 H       -1.337430732    11.304112685    -1.163497041
 H       -0.447985550     9.037931882    -1.125407422
 H       -3.226773103    14.481550109    -1.661101694
 H       -3.113482725    11.740686376    -3.158609029
 H       -2.394940224    11.737933553    -5.341162247
 H       -1.582561154    12.868186650    -7.366690858
 H       -1.643415816    16.638939608    -5.256745459
 H       -2.595854489    15.521773834    -3.300507418
 H       -0.624216539    17.265647125    -8.625898197
 H       -0.174610692    17.291830617    -6.895412955
 H       -1.898055764    17.346876591    -7.393326495
 H        4.285485405    13.111326010    -6.802494515
 H        4.866264423    13.882278009    -5.316364679
 H        4.383538279    14.895209650    -6.718189846
 H        0.382900934    14.349601152    -4.528024768
 H       -0.266536372    16.106929617    -2.955774773
 H        3.795635439    17.526110667    -2.827463334
 H        4.438763053    15.854781750    -4.495150320
 H        0.156211083    17.845098311    -1.644122025
 H        3.051262533    19.000986155    -1.374019118
 H        1.010128793    17.542766636     1.528923006
 H       -0.831471559    16.262028283     2.472482848
 H       -3.670912432    19.040259423     0.814218309
 H       -1.865114781    20.374286856    -0.104764039
 H       -3.093091207    15.861214768     2.842815959
 H       -5.116976718    17.879795907     1.647234615
 H       -4.485129472    14.716654036     3.669983190
 H       -6.253140097    13.361305629     4.631794108
 H       -9.199908468    16.097614687     2.965090274
 H       -7.394118369    17.429604569     2.025462259
 H       -0.116407495    13.713865963    -8.453612009
 H        0.222566045    15.228901940    -9.307234109
 H        2.291084533    15.057296010    -8.260175597
 H        1.463178954    15.850076746    -6.926644468
 H        0.819704546    13.377554362    -6.121495940
 H        2.085676535    12.841359952    -7.242492301
 H        2.263358501    -1.028801092     0.056925704
 H        2.259572792     0.557659952     0.869142921
 H        2.276211856     0.465485827    -0.912753259
 H       -9.489263434    12.290288418     6.729277281
 H       -8.410995888    13.688706129     6.970398405
 H       -7.798661091    12.216898985     6.172103803
 H      -11.056947327    14.975006715     3.786137627
 C      -12.000385104    13.752736140     5.307758497
 C      -10.626319748    15.800859729     5.747765816
 H      -10.307096994    11.491708814     3.890619774
 C      -10.099055993    12.629778284     2.049994107
 C       -8.279844777    11.298110625     3.129475205
 H        3.123242047    21.222871201     0.771943326
 C        1.639865154    21.555995342     2.326751491
 C        3.016518581    19.481884510     2.059495880
 H       -0.188569088    22.099668369    -0.337809899
 C        1.654663861    22.547276596    -1.392138016
 C       -0.225742951    21.183732819    -2.311992364
 H       -6.123657126    11.923054440     0.643986777
 C       -6.421880901    13.920842272    -0.140032189
 C       -6.506576304    11.814624734    -1.492761390
 H       -3.815099086    14.279333542     1.296451526
 C       -3.552717015    12.462397707     2.470921996
 C       -1.763277513    13.581201352     1.119997808
 H       -0.152463930    -1.934890182    -1.516488372
 C       -2.153952554    -1.091874386    -1.574825211
 C       -0.187669578    -0.224814404    -2.856335473
 H       -1.775570907    -0.921997412     1.441538089
 C       -0.179198340    -2.378016177     1.626027125
 C       -0.293473839    -0.193264742     2.848981034
 H      -12.242324783    12.909900117     4.647318289
 H      -12.903641748    14.378885966     5.348962923
 H      -11.858135565    13.353668211     6.320792087
 H       -9.813474175    16.473315983     5.439581937
 H      -10.438700031    15.514390650     6.791426452
 H      -11.542486291    16.408569284     5.754765705
 H      -11.050634606    13.168352928     2.142234194
 H      -10.297378302    11.767514429     1.396928929
 H       -9.399479704    13.276065138     1.500257183
 H       -7.854255766    10.848893384     4.035665644
 H       -7.480952170    11.864341004     2.627004508
 H       -8.530230470    10.461905679     2.460721784
 H        1.196295257    22.453211209     1.875992819
 H        2.375556826    21.912886627     3.061985381
 H        0.851833006    21.050300095     2.902990154
 H        3.518232576    18.762104854     1.398640889
 H        2.327448186    18.920546445     2.705657018
 H        3.795088499    19.885879017     2.722521485
 H        2.176647270    22.958447147    -0.518583348
 H        1.237381198    23.409969556    -1.931579603
 H        2.408875295    22.105910529    -2.057736122
 H       -1.070313318    20.501530538    -2.147777434
 H        0.428442334    20.715278875    -3.062457629
 H       -0.643356160    22.083976333    -2.783620570
 H       -6.085662908    14.437838236     0.771505059
 H       -7.518107030    13.875969745    -0.067764665
 H       -6.194672672    14.570008655    -0.995640920
 H       -6.184821190    10.774371235    -1.636180919
 H       -6.326410590    12.348476250    -2.436926196
 H       -7.597013203    11.784658504    -1.359054078
 H       -4.624624368    12.337832341     2.676227180
 H       -3.118935943    12.954087826     3.353178061
 H       -3.102049659    11.459778062     2.435541424
 H       -1.494012413    14.242579479     0.283567297
 H       -1.156314065    12.669273068     1.030881444
 H       -1.421445682    14.086617891     2.033889552
 H       -2.538881376    -1.665237062    -0.722057228
 H       -2.451769137    -1.646876509    -2.476296526
 H       -2.696476888    -0.136389819    -1.611089074
 H        0.901165580    -0.129508050    -2.955652984
 H       -0.622842769     0.777630820    -2.978267763
 H       -0.524404222    -0.813108307    -3.721939031
 H       -0.459666811    -2.979274139     0.751623132
 H       -0.639689543    -2.868374354     2.496053740
 H        0.906551607    -2.470491544     1.761345291
 H       -0.647425357     0.847153101     2.882115840
 H        0.785676141    -0.181256945     3.051946908
 H       -0.762757374    -0.704819185     3.701309221

