187   

Si        0.000000000     0.000000000     0.000000000
 C        1.865048374     0.000000000     0.000000000
 C       -0.679667238     1.709579856     0.000000000
 C        0.144710412     2.822192195     0.192858726
 C       -0.390119266     4.110540935     0.189413471
 C       -1.757498009     4.316147887    -0.010671190
 C       -2.582093181     3.198694936    -0.199668161
 C       -2.053502417     1.911713998    -0.188788741
 C       -2.363003858     5.642856783    -0.022740613
 C       -1.692025742     6.793546404     0.152960292
 C       -2.305136382     8.117196579     0.139517811
 C       -3.673445675     8.308938957    -0.061570404
 C       -4.221369615     9.591070332    -0.067438736
 C       -3.415324025    10.709517653     0.162069856
 C       -2.043050630    10.519571309     0.377200367
 C       -1.495896145     9.239662326     0.361999417
Si       -4.097233204    12.417451504     0.163020544
 C       -3.818690247    13.232475885     1.777353914
 C       -3.763460950    12.524523496     2.913540247
 C       -3.545161658    13.096615767     4.241282922
 C       -3.511982234    12.225791480     5.341983155
 C       -3.309153331    12.706437616     6.623405491
 C       -3.194613591    14.094297066     6.848783349
 C       -3.237207128    14.968386500     5.752538883
 C       -3.390558796    14.465173874     4.464039141
 N       -2.987726131    14.531237782     8.179644290
 C       -3.949299256    13.984443739     9.162978333
 C       -2.714484266    15.965894370     8.363422957
 C       -5.414792095    13.905516190     8.697922086
 C       -5.984272077    15.290367243     8.347079175
 N       -7.424862570    15.287799100     8.073079850
 C       -7.906179092    14.844039804     6.834822655
 C       -7.051203626    14.593909054     5.741359636
 C       -7.567322428    14.154979645     4.530640443
 C       -8.946534811    13.983678729     4.344879578
 C       -9.793974597    14.254689458     5.423897584
 C       -9.295203059    14.680753555     6.645707275
 C       -8.251011548    15.009310011     9.258162741
 C       -9.454111973    13.518496244     3.052150105
 C      -10.754210113    13.327199973     2.786249611
Si      -11.443632752    12.749413762     1.194956725
 C      -10.279439022    11.645904752     0.290670223
 C       -9.905319797    10.416900873     0.848473303
 C       -9.024616900     9.569056986     0.177048753
 C       -8.500965931     9.925981579    -1.068948773
 C       -8.881494825    11.151774117    -1.629748621
 C       -9.762587782    11.998275216    -0.961867195
 C       -7.577510924     9.079460234    -1.814742534
 C       -7.124013741     7.881979056    -1.407113097
 C       -6.198824246     7.052736997    -2.172986590
 C       -5.698520238     7.443595763    -3.417951630
 C       -4.815872684     6.625291600    -4.121690917
 C       -4.432379610     5.382699741    -3.606719141
 C       -4.942554600     4.985145841    -2.364199965
 C       -5.813187720     5.809075223    -1.656038151
Si       -3.266422798     4.296859453    -4.531827547
 C       -3.023591274     4.902365521    -6.280755055
 C       -1.618737981     4.317665700    -3.582319038
 C       -3.898157351     2.502837581    -4.622116018
 C      -13.083638635    11.841934323     1.522463266
 C      -11.831152615    14.296014624     0.145569478
 C       -3.387005060    13.437728029    -1.267814927
 C       -5.995370731    12.355726988     0.003838394
 C       -0.662341954    -0.874525975    -1.556556261
 C       -0.610323544    -0.940254948     1.537136583
 H        1.222153919     2.724337090     0.349758295
 H        0.272900212     4.959689431     0.343606263
 H       -3.652897925     3.335559302    -0.341755429
 H       -2.748110972     1.079371650    -0.334573000
 H       -3.443795719     5.652626118    -0.202897944
 H       -0.612087309     6.790068928     0.324343909
 H       -4.327438603     7.454828106    -0.238901948
 H       -5.297038870     9.672547096    -0.259807827
 H       -1.365442031    11.356756023     0.571040672
 H       -0.428214332     9.112191459     0.526766746
 H       -3.721921937    14.325337376     1.763240874
 H       -3.864001518    11.428141342     2.933033070
 H       -3.631209657    11.152748162     5.185135022
 H       -3.238761310    12.015345898     7.459232030
 H       -3.149520782    16.041060817     5.890351114
 H       -3.407199641    15.159375049     3.623213602
 H       -2.466784102    16.157090214     9.421476234
 H       -3.542387452    16.631275900     8.074058279
 H       -1.818895902    16.237021787     7.774228958
 H       -7.723869676    15.309186190    10.178292476
 H       -8.527187913    13.945298836     9.347138976
 H       -9.176046198    15.613092700     9.207743938
 H       -5.973834736    14.713058045     5.839638086
 H       -6.879096189    13.944150799     3.708471982
 H      -10.872155877    14.132748657     5.311267739
 H       -9.989546513    14.887227744     7.452738712
 H       -8.660638447    13.329541379     2.315009559
 H      -11.523308864    13.535975559     3.546775126
 H      -10.272473404    10.089641235     1.826664640
 H       -8.746281797     8.621631856     0.634647023
 H       -8.487959432    11.448896011    -2.600138645
 H      -10.030949881    12.934410183    -1.459626501
 H       -7.255204776     9.495565346    -2.774926251
 H       -7.441730822     7.458712020    -0.450524418
 H       -5.985557945     8.402178387    -3.846672173
 H       -4.448226246     6.992937469    -5.083757199
 H       -4.682855878     4.019746441    -1.919500227
 H       -6.202085698     5.478320084    -0.695035637
 H       -3.592516381    12.957551820     9.419858332
 H       -3.880906220    14.572665151    10.103400800
 H       -5.508031905    13.234355766     7.819050154
 H       -6.022123837    13.430708319     9.490334036
 H       -5.800044665    16.005953125     9.181761607
 H       -5.452935466    15.712593902     7.461219577
 H        2.262434821    -1.030178619    -0.032434110
 H        2.273367376     0.484856794     0.904113595
 H        2.263495904     0.536432359    -0.880144035
 H       -2.327827289     4.247897075    -6.835142566
 H       -2.597713942     5.921612531    -6.295907937
 H       -3.976224654     4.924911296    -6.837896646
 H       -1.843089871     3.853580001    -2.574476343
 C       -0.512622505     3.483543092    -4.250578998
 C       -1.092419046     5.741219921    -3.330282227
 H       -3.235093822     1.998780089    -5.384723406
 C       -3.787888510     1.704675958    -3.311290749
 C       -5.351160360     2.421714073    -5.126350990
 H      -13.765687839    12.612849358     1.987211515
 C      -13.749615771    11.329592659     0.233241667
 C      -12.957451361    10.673474329     2.515959519
 H      -12.078686159    13.916790198    -0.887104511
 C      -13.044236170    15.094911513     0.656366275
 C      -10.628987089    15.252664981     0.040584742
 H       -3.912495922    14.435943531    -1.226934400
 C       -1.874826708    13.695066429    -1.145576595
 C       -3.677276516    12.802359299    -2.640561273
 H       -6.226402561    11.691103397    -0.878348720
 C       -6.633473207    11.734443034     1.259004780
 C       -6.642146101    13.727682158    -0.252552125
 H       -1.787791107    -0.828744090    -1.479550594
 C       -0.250460790    -0.156240218    -2.854297088
 C       -0.255654983    -2.355199274    -1.652087023
 H       -0.095000384    -1.943770783     1.501781852
 C       -0.209579055    -0.244907662     2.851180797
 C       -2.129376514    -1.187901039     1.554236229
 H       -0.798403154     2.438163938    -4.424017507
 H        0.374902799     3.456670613    -3.600418273
 H       -0.180742561     3.903225949    -5.208981055
 H       -1.807561679     6.376871342    -2.785733572
 H       -0.808676879     6.268458330    -4.249000819
 H       -0.191175265     5.699893292    -2.701115512
 H       -2.776981846     1.710097985    -2.878631762
 H       -4.036482241     0.649490557    -3.494365936
 H       -4.484234700     2.054100980    -2.538271567
 H       -5.499715432     2.889614227    -6.108211874
 H       -6.070409581     2.878459538    -4.431851859
 H       -5.654292180     1.371315552    -5.238619713
 H      -13.957562932    12.122845049    -0.496461528
 H      -14.718433005    10.865752586     0.467655817
 H      -13.155760702    10.557912591    -0.277338652
 H      -12.480711821    10.954503787     3.464869147
 H      -12.403808557     9.819795675     2.101738023
 H      -13.955678283    10.291476457     2.773678638
 H      -13.976019404    14.515480684     0.664547841
 H      -13.228492670    15.957293466    -0.000659196
 H      -12.893368903    15.504955704     1.664433350
 H       -9.715822607    14.780498305    -0.344630737
 H      -10.372646001    15.715321929     1.005927139
 H      -10.862455517    16.078365305    -0.645753779
 H       -1.584851234    14.155280239    -0.191615943
 H       -1.546092590    14.386989201    -1.933988808
 H       -1.276686598    12.781784539    -1.272873512
 H       -4.748690717    12.668194640    -2.840097177
 H       -3.190065897    11.824879880    -2.770895366
 H       -3.291923308    13.446628611    -3.443104400
 H       -6.288993477    10.713752001     1.472458448
 H       -7.723339917    11.659637122     1.123019282
 H       -6.473389549    12.331286599     2.168300367
 H       -6.295017867    14.207978691    -1.174932142
 H       -6.492420314    14.434627277     0.574491068
 H       -7.731671015    13.605886423    -0.360589532
 H       -0.542335575     0.904643384    -2.873912210
 H       -0.740189261    -0.627764873    -3.718116002
 H        0.829349924    -0.205406216    -3.046631890
 H       -0.581357040    -2.952640958    -0.790835747
 H        0.827468294    -2.495886967    -1.764717936
 H       -0.718318682    -2.815437355    -2.537287238
 H        0.873762328    -0.104019994     2.958095210
 H       -0.526513891    -0.852441255     3.710992310
 H       -0.686215392     0.738000417     2.976593412
 H       -2.489064592    -1.751467073     0.684135551
 H       -2.712440830    -0.258848922     1.621444248
 H       -2.401978268    -1.782856248     2.438256044

