187   

Si        0.000000000     0.000000000     0.000000000
 C        1.864983309     0.000000000     0.000000000
 C       -0.680699116     1.710606078     0.000000000
 C        0.115312792     2.804191835     0.355213533
 C       -0.411091933     4.095854513     0.351631574
 C       -1.743660819     4.323365543    -0.001568947
 C       -2.541243603     3.225986840    -0.352853778
 C       -2.018760710     1.935714014    -0.350568637
 C       -2.338155340     5.655682831    -0.019914528
 C       -1.688091604     6.789586507     0.293204688
 C       -2.286077518     8.120552728     0.273713449
 C       -1.494100087     9.221723366     0.623485283
 C       -2.022533986    10.510635060     0.619015115
 C       -3.354428693    10.729799375     0.249253632
 C       -4.147404969     9.630975391    -0.102908607
 C       -3.619050130     8.341476169    -0.085369260
Si       -4.088736649    12.416385835     0.230678722
 C       -5.299630649    12.610378103    -1.125543589
 C       -5.230078118    11.954374362    -2.291959304
 C       -6.196007700    12.105494916    -3.380815804
 C       -6.013429990    11.361379316    -4.555721295
 C       -6.897508504    11.466533184    -5.616297204
 C       -8.039097300    12.292162033    -5.516971103
 C       -8.224536006    13.037315432    -4.336896114
 C       -7.301585686    12.955534365    -3.301483097
 N       -8.926964348    12.389054884    -6.600640708
 C       -9.091180984    11.202349857    -7.458189797
 C      -10.163570818    13.155795200    -6.390485773
 C       -9.522891696     9.919319265    -6.727357037
 C      -11.034434091     9.834300934    -6.454764430
 N      -11.852294441     9.376955380    -7.591773900
 C      -11.530910708     8.137338283    -8.167942543
 C      -11.016492811     7.100465264    -7.358687455
 C      -10.694855686     5.872317970    -7.912559257
 C      -10.910863025     5.609528166    -9.272989741
 C      -11.448073362     6.626825503   -10.065974402
 C      -11.763271444     7.869197679    -9.530506445
 C      -12.274907675    10.451519242    -8.501597145
 C      -10.552713348     4.294155083    -9.806598199
 C      -10.714992270     3.934810456   -11.086560291
Si      -10.287864486     2.311855505   -11.809347350
 C      -11.717868987     1.667043811   -12.769977217
 C      -13.012810313     2.127799458   -12.501915219
 C      -14.097707404     1.641847907   -13.227177700
 C      -13.917759513     0.678201421   -14.227958449
 C      -12.624483749     0.215862121   -14.488406906
 C      -11.535288250     0.703291033   -13.767352425
 C      -15.085904839     0.200235218   -14.960267878
 C      -15.051328250    -0.715528350   -15.943249445
 C      -16.219739521    -1.193168076   -16.675255313
 C      -17.512735818    -0.731517637   -16.415499430
 C      -18.601970677    -1.215606066   -17.139837095
 C      -18.419870552    -2.168231457   -18.147157497
 C      -17.123825768    -2.632109625   -18.410554617
 C      -16.039582982    -2.151803598   -17.681447831
Si      -19.846354618    -2.817417885   -19.112375583
 C      -21.387615360    -1.805864822   -18.826870832
 C      -19.376667614    -2.791875153   -20.956880170
 C      -20.194935272    -4.617255185   -18.600775295
 C       -8.794495554     2.537427404   -12.967200300
 C       -9.828373286     1.053030617   -10.460016152
 C       -4.984756524    12.712392977     1.882409399
 C       -2.726963472    13.729808054     0.030828263
 C       -0.651484165    -0.909136846    -1.540765001
 C       -0.619665319    -0.919149531     1.547082592
 H        1.164825414     2.689043918     0.639932917
 H        0.230549646     4.930553334     0.628074854
 H       -3.582022199     3.380774542    -0.630960953
 H       -2.688871419     1.119448163    -0.634480896
 H       -3.391048143     5.682152363    -0.315938193
 H       -0.635592616     6.764601005     0.589904561
 H       -0.453815355     9.071808716     0.905641175
 H       -1.358392848    11.329570797     0.908032966
 H       -5.195577252     9.743335422    -0.400741090
 H       -4.256808491     7.503220357    -0.359638390
 H       -6.103627501    13.333878121    -0.924473359
 H       -4.432536612    11.232475859    -2.520107358
 H       -5.152737532    10.696155467    -4.643695236
 H       -6.704698706    10.906205760    -6.526927452
 H       -9.082700542    13.689974546    -4.219429805
 H       -7.460344688    13.557280345    -2.405316782
 H      -10.772645424    13.153754823    -7.309387584
 H       -9.900996936    14.211297020    -6.186116038
 H      -10.781452159    12.779867449    -5.558489415
 H      -12.492087929    11.369490403    -7.931065000
 H      -13.219838545    10.153170289    -8.994430246
 H      -11.532055873    10.689482605    -9.280753269
 H      -10.865886200     7.260283771    -6.294732782
 H      -10.279844881     5.093045068    -7.272087378
 H      -11.628527176     6.449578405   -11.127788221
 H      -12.178984458     8.628476082   -10.184264195
 H      -10.136457285     3.618870244    -9.047708414
 H      -11.130834789     4.641022218   -11.824885336
 H      -13.212872866     2.876257572   -11.727853158
 H      -15.096622494     2.014834397   -13.008756541
 H      -12.457522407    -0.532492094   -15.260612133
 H      -10.547944460     0.305118135   -14.016604934
 H      -16.034436978     0.649070047   -14.650739280
 H      -14.103038564    -1.164522035   -16.252442174
 H      -17.681144363     0.013116656   -15.639652795
 H      -19.589499016    -0.817880029   -16.889852238
 H      -16.920954948    -3.375551329   -19.186608087
 H      -15.040901661    -2.525272448   -17.899483164
 H       -9.808393466    11.446753460    -8.271868248
 H       -8.115427204    11.026966079    -7.973722420
 H       -9.199894981     9.038054873    -7.318999905
 H       -8.975368387     9.835069635    -5.765912140
 H      -11.221184709     9.131530082    -5.606559662
 H      -11.423495261    10.816715589    -6.108451343
 H        2.262534093    -1.029720563    -0.045689639
 H        2.275726701     0.474798790     0.908193793
 H        2.260400450     0.547607436    -0.874920978
 H      -22.226701221    -2.175633540   -19.442746108
 H      -21.221517140    -0.746658204   -19.094922215
 H      -21.709891303    -1.840248581   -17.771400919
 H      -18.466394960    -3.452765292   -21.053155461
 C      -20.471053334    -3.360458147   -21.877452376
 C      -18.989742264    -1.384693653   -21.446894355
 H      -21.114610004    -4.924538759   -19.178064814
 C      -19.060352984    -5.593870307   -18.958239056
 C      -20.507272937    -4.753194562   -17.099085264
 H       -8.547393732     1.508995797   -13.360179138
 C       -9.112467819     3.442489521   -14.170680627
 C       -7.550034634     3.081735497   -12.243812711
 H       -9.021018381     1.541914990    -9.841418600
 C      -11.014354120     0.728608748    -9.533144790
 C       -9.265493659    -0.265066267   -11.021025065
 H       -5.407517520    13.756781773     1.825157564
 C       -6.154753894    11.734748077     2.094453558
 C       -4.047108806    12.641684135     3.100224366
 H       -2.027358194    13.591429509     0.904966312
 C       -1.918847897    13.539084238    -1.265432587
 C       -3.263304210    15.171777678     0.075651623
 H       -1.775948303    -0.920967462    -1.441281548
 C       -0.302127700    -0.176902239    -2.849023172
 C       -0.173623314    -2.368818169    -1.640001986
 H       -0.133968569    -1.937023798     1.513255808
 C       -0.191144954    -0.229180276     2.855208398
 C       -2.145592569    -1.119036421     1.571959177
 H      -20.749382290    -4.394170911   -21.634818735
 H      -20.115960102    -3.374406888   -22.918260424
 H      -21.388808834    -2.757592527   -21.875131645
 H      -18.170046905    -0.934454417   -20.868685114
 H      -19.830799501    -0.678944978   -21.433193264
 H      -18.641288674    -1.430594984   -22.488517917
 H      -18.824817580    -5.615728708   -20.029739121
 H      -19.349544489    -6.619936563   -18.687605326
 H      -18.130095968    -5.384951042   -18.411384332
 H      -21.364967878    -4.149611242   -16.775383979
 H      -19.653194201    -4.487542415   -16.459455108
 H      -20.758091318    -5.796460596   -16.859342040
 H       -9.970324847     3.094118626   -14.763057129
 H       -8.255599446     3.469330375   -14.858770291
 H       -9.308943547     4.484219413   -13.882414202
 H       -7.206621927     2.437236079   -11.424376061
 H       -7.700629189     4.090374405   -11.833003352
 H       -6.709022842     3.158940508   -12.947563144
 H      -11.456046816     1.614574448    -9.056791811
 H      -10.686612362     0.069641849    -8.716994839
 H      -11.825586814     0.196742660   -10.051124229
 H       -8.350017604    -0.131625377   -11.611200649
 H       -9.990263343    -0.810491041   -11.641791141
 H       -9.001305731    -0.942143493   -10.195637658
 H       -6.900357046    11.765145662     1.288341949
 H       -6.691569303    11.984081964     3.020664863
 H       -5.824770756    10.691421901     2.202735012
 H       -3.234103935    13.378160507     3.067615323
 H       -3.594161276    11.648857043     3.234581996
 H       -4.610893019    12.847539080     4.021619005
 H       -1.453638993    12.547193915    -1.349316114
 H       -1.098547725    14.269073784    -1.310342906
 H       -2.522339368    13.697125403    -2.171313972
 H       -3.789559822    15.412839662     1.007903921
 H       -3.938191051    15.402305741    -0.760613971
 H       -2.429428514    15.884806763     0.001681821
 H       -0.663136118     0.861269377    -2.874903948
 H       -0.770562824    -0.686211902    -3.703177614
 H        0.776295325    -0.156836205    -3.054946258
 H       -0.450328862    -2.977059258    -0.769169375
 H        0.912304188    -2.455726351    -1.777523624
 H       -0.633116558    -2.855403461    -2.512662272
 H        0.896271785    -0.118813346     2.954791723
 H       -0.519655567    -0.823809948     3.719714672
 H       -0.639933022     0.766959406     2.979201081
 H       -2.524778522    -1.686930516     0.713016158
 H       -2.699562073    -0.170835247     1.621017748
 H       -2.435108458    -1.688664138     2.467111978

