187   

Si        0.000000000     0.000000000     0.000000000
 C        1.865406668     0.000000000     0.000000000
 C       -0.672911470     1.712522920     0.000000000
 C        0.108568909     2.792750172     0.422408625
 C       -0.409626459     4.087388594     0.419086054
 C       -1.720358949     4.330463516    -0.000154481
 C       -2.503780146     3.246313167    -0.416571870
 C       -1.989771574     1.952818735    -0.413786449
 C       -2.302976147     5.667134684    -0.020005359
 C       -1.657480939     6.784586734     0.354114590
 C       -2.239292154     8.121610075     0.334589489
 C       -1.452591959     9.202969049     0.752531621
 C       -1.964685311    10.497165506     0.751254253
 C       -3.264552539    10.743462436     0.290214984
 C       -4.049588814     9.666522971    -0.133627426
 C       -3.544791859     8.367624434    -0.097327766
Si       -3.931497768    12.454685524     0.292419234
 C       -5.376920040    12.687165349    -0.799434464
 C       -5.649390792    12.027136984    -1.933585253
 C       -6.840836255    12.284987045    -2.746249338
 C       -7.057431930    11.552714480    -3.921624610
 C       -8.176539506    11.774670540    -4.711641781
 C       -9.105923175    12.778878089    -4.370733593
 C       -8.887835131    13.516529590    -3.188043539
 C       -7.785613356    13.252700581    -2.389555898
 N      -10.248276206    13.034462080    -5.141874501
 C      -10.382932149    12.427259004    -6.469105551
 C      -10.834252275    14.381462506    -5.048980781
 C       -9.555997603    13.124257389    -7.565873037
 C       -9.804138728    12.463530948    -8.936749422
 N       -8.601434063    11.863006706    -9.549322154
 C       -7.925179925    10.914860790    -8.746859513
 C       -8.678821637     9.939013345    -8.061979025
 C       -8.047154229     8.995526960    -7.267474218
 C       -6.648800404     8.940531160    -7.185664559
 C       -5.903536958     9.887970522    -7.892283754
 C       -6.523810790    10.865225543    -8.660443695
 C       -7.762074183    12.864991978   -10.229087652
 C       -6.023373537     7.927057169    -6.333607926
 C       -4.698378835     7.797905880    -6.192559361
Si       -3.825969876     6.571591510    -5.158546859
 C       -2.596423740     7.474740856    -4.132918583
 C       -2.765671676     8.845354997    -3.900585951
 C       -1.844018142     9.543384985    -3.126530082
 C       -0.728466673     8.893164676    -2.583804554
 C       -0.563806219     7.525186748    -2.817079400
 C       -1.494133062     6.818006293    -3.577516178
 C        0.205237180     9.672881975    -1.780497848
 C        1.305851893     9.185124609    -1.183967618
 C        2.224343695     9.988456854    -0.384703481
 C        2.032573682    11.355995809    -0.169223372
 C        2.933605890    12.089693986     0.601308362
 C        4.048552904    11.469247142     1.173626930
 C        4.240871365    10.097358812     0.962655074
 C        3.336980709     9.366481317     0.196571031
Si        5.243386174    12.428991382     2.192117284
 C        5.070935320    14.263844850     1.903052392
 C        4.917694574    12.060205314     4.031229547
 C        7.007449599    11.858819894     1.761844137
 C       -5.026693175     5.664339251    -3.997179998
 C       -2.949027627     5.301530746    -6.264673559
 C       -4.464401731    12.891506670     2.066566813
 C       -2.554856794    13.658629511    -0.241085325
 C       -0.651331384    -0.902730763    -1.545261370
 C       -0.628043376    -0.920112722     1.542544782
 H        1.140165794     2.663648106     0.760280171
 H        0.219704061     4.911491335     0.750851788
 H       -3.530424781     3.412324529    -0.738480351
 H       -2.649279587     1.146622672    -0.746222677
 H       -3.337397209     5.713612955    -0.372765087
 H       -0.621564966     6.741712578     0.704102988
 H       -0.429847298     9.032545341     1.087481244
 H       -1.310042349    11.297588281     1.107109323
 H       -5.074899466     9.799610699    -0.493675059
 H       -4.176712304     7.542367214    -0.421100777
 H       -6.054601876    13.479189397    -0.438077601
 H       -5.000432097    11.240719701    -2.341098161
 H       -6.339556252    10.786909748    -4.224174844
 H       -8.309951683    11.177186169    -5.611502666
 H       -9.588451186    14.284794084    -2.879116356
 H       -7.654992563    13.827971266    -1.471355808
 H      -11.632981558    14.511295411    -5.796894999
 H      -10.091640201    15.183962660    -5.192049261
 H      -11.302893386    14.504464571    -4.054882992
 H       -8.392535077    13.481049551   -10.892604943
 H       -7.031533936    12.349287409   -10.877981865
 H       -7.222259586    13.534956807    -9.540761625
 H       -9.760796533     9.921038661    -8.160009025
 H       -8.649619388     8.271152407    -6.718325966
 H       -4.813327258     9.873563805    -7.840123618
 H       -5.906662891    11.593002318    -9.177748495
 H       -6.745877195     7.285042366    -5.815278253
 H       -4.004747053     8.459046000    -6.741397196
 H       -3.617078505     9.404667351    -4.302188782
 H       -1.998123003    10.605522238    -2.939748961
 H        0.289920717     6.996974660    -2.396891901
 H       -1.323248994     5.746822576    -3.715024766
 H       -0.056703732    10.731816002    -1.679869291
 H        1.572955744     8.129653617    -1.277271929
 H        1.173676310    11.863860818    -0.605639921
 H        2.732481642    13.156401338     0.732726335
 H        5.093901040     9.560381891     1.386338168
 H        3.501657731     8.301469976     0.045314006
 H      -10.104306202    11.348733477    -6.400022048
 H      -11.465558520    12.442633182    -6.737198575
 H       -9.802486087    14.199151067    -7.605543810
 H       -8.481085421    13.084943888    -7.298493918
 H      -10.576776615    11.663908920    -8.863579513
 H      -10.225993991    13.206102630    -9.649609718
 H        2.263785801    -1.029241082    -0.046268927
 H        2.276119080     0.474969502     0.907979413
 H        2.259171466     0.548659354    -0.874849075
 H        5.821111306    14.830425785     2.483217184
 H        4.073590944    14.633424921     2.198537354
 H        5.219994083    14.511366483     0.836233685
 H        5.632563058    12.715087891     4.608020904
 C        3.483909926    12.424448808     4.459018093
 C        5.191248294    10.596277278     4.420253655
 H        7.048066139    10.759578637     2.015881820
 C        7.325346572    12.007478902     0.262895309
 C        8.099665109    12.571079270     2.579612020
 H       -5.833803580     5.231657826    -4.655004306
 C       -4.362225449     4.506451071    -3.232269379
 C       -5.689021188     6.617508332    -2.985082729
 H       -2.442643003     4.576108369    -5.562806160
 C       -3.919844333     4.503894274    -7.153023006
 C       -1.863938990     5.938416513    -7.151116866
 H       -4.834029827    13.956229790     2.028753031
 C       -5.619451063    12.001183976     2.559079337
 C       -3.312013011    12.822369903     3.083754467
 H       -1.747831184    13.576759859     0.543334923
 C       -1.938299006    13.282540110    -1.600280863
 C       -3.021680598    15.123921979    -0.291660995
 H       -1.774442455    -0.933157959    -1.435686065
 C       -0.325953224    -0.150440113    -2.848637652
 C       -0.151733281    -2.353393330    -1.665183393
 H       -0.159553785    -1.945585157     1.500918298
 C       -0.185429228    -0.245591885     2.854006882
 C       -2.157291163    -1.094171267     1.568692027
 H        3.234578877    13.480435708     4.293995399
 H        3.354881209    12.243433474     5.535791485
 H        2.719636742    11.818003375     3.951631520
 H        6.226183912    10.282444474     4.234185212
 H        4.526162971     9.886949339     3.907738879
 H        5.017169119    10.454986745     5.496959527
 H        6.614375470    11.476376216    -0.386165780
 H        8.316120469    11.584691064     0.043593836
 H        7.355799692    13.054131411    -0.067801165
 H        7.978652611    12.451168654     3.663970673
 H        8.161184767    13.646535525     2.366705960
 H        9.086088530    12.152333737     2.332439057
 H       -3.970962458     3.718790955    -3.889125617
 H       -5.096801845     4.019265673    -2.575350796
 H       -3.535908223     4.839680305    -2.585326017
 H       -6.254321664     7.432944994    -3.457801658
 H       -4.964223956     7.078329831    -2.297091801
 H       -6.405886267     6.067433832    -2.360254820
 H       -4.676921730     3.950235040    -6.583050233
 H       -3.366619998     3.754671791    -7.737238599
 H       -4.447763145     5.133360152    -7.883372635
 H       -1.105561790     6.492708197    -6.579752175
 H       -2.274413557     6.620458355    -7.907914729
 H       -1.321454808     5.157296915    -7.702427321
 H       -6.506133359    12.037762138     1.911375057
 H       -5.950612263    12.327794827     3.554741858
 H       -5.329599604    10.945305857     2.662509746
 H       -2.482785646    13.502130378     2.850756972
 H       -2.896641352    11.809404008     3.190403534
 H       -3.673532507    13.110294823     4.081372422
 H       -1.509706888    12.270479043    -1.612029803
 H       -1.118101807    13.970946395    -1.847417352
 H       -2.657631456    13.350590298    -2.429043187
 H       -3.411826398    15.491964535     0.665541267
 H       -3.791949186    15.300157138    -1.055762981
 H       -2.178040264    15.779620486    -0.550094914
 H       -0.702008842     0.882843674    -2.858902620
 H       -0.794576951    -0.657580610    -3.703882170
 H        0.750053510    -0.112323939    -3.064260617
 H       -0.409940636    -2.975194534    -0.798253775
 H        0.934043963    -2.421429458    -1.814230330
 H       -0.612256423    -2.837810008    -2.538462685
 H        0.903995282    -0.156806512     2.952953653
 H       -0.524654717    -0.838561432     3.715514593
 H       -0.615093226     0.758263494     2.983795629
 H       -2.546313785    -1.657305238     0.711054592
 H       -2.695374611    -0.136587492     1.615332224
 H       -2.456110429    -1.656767525     2.465176526

