187   

Si        0.000000000     0.000000000     0.000000000
 C        1.865320251     0.000000000     0.000000000
 C       -0.673097149     1.713616391     0.000000000
 C        0.134109302     2.803630309     0.340943029
 C       -0.384022784     4.098490026     0.338315688
 C       -1.719832037     4.333121201     0.002146119
 C       -2.528559796     3.239455057    -0.334771259
 C       -2.013831449     1.945925000    -0.335109030
 C       -2.303972943     5.670244917    -0.013837989
 C       -1.638305798     6.798561851     0.285841988
 C       -2.219792861     8.136763850     0.270689657
 C       -3.555782825     8.374291311    -0.065221373
 C       -4.070069621     9.670153669    -0.066702915
 C       -3.253149730    10.758493450     0.257996473
 C       -1.914081228    10.524691924     0.594517892
 C       -1.406816455     9.227787539     0.604795273
Si       -3.921600325    12.472064035     0.259067892
 C       -2.552559272    13.668798343     0.076215024
 C       -2.337858599    14.741321543     0.849175137
 C       -1.225318939    15.675079971     0.665468352
 C       -1.102519996    16.765153160     1.539383275
 C       -0.068287049    17.677015905     1.408312791
 C        0.864069872    17.554530280     0.354797874
 C        0.741136516    16.461169226    -0.522939997
 C       -0.275756573    15.530544993    -0.349045450
 N        1.907740274    18.489022369     0.236700959
 C        1.622638809    19.876947158     0.644045037
 C        2.772997892    18.379730684    -0.947206225
 C        0.435978749    20.537139234    -0.079137774
 C        0.805262306    21.155839623    -1.438526665
 N        1.345265716    22.525881061    -1.374476480
 C        0.547018252    23.507393619    -0.762000129
 C       -0.859424487    23.428351911    -0.860635817
 C       -1.659841729    24.387446383    -0.262832706
 C       -1.100545869    25.482334231     0.412342808
 C        0.291505502    25.575299297     0.482933422
 C        1.109388641    24.613555263    -0.097223928
 C        2.792570661    22.586156599    -1.121744224
 C       -1.994683741    26.465399603     1.025450660
 C       -1.578466534    27.549235345     1.694488816
Si       -2.698427649    28.775816690     2.459491534
 C       -4.291351861    28.914632764     1.550094859
 C       -4.318227282    28.721459424     0.162479787
 C       -5.515176620    28.822892632    -0.541037897
 C       -6.711383085    29.132820212     0.119615073
 C       -6.679907354    29.333986010     1.502217290
 C       -5.483324666    29.228703550     2.210721669
 C       -7.939838215    29.227834581    -0.661850707
 C       -9.151051191    29.512524069    -0.154036901
 C      -10.378523559    29.607090485    -0.937366700
 C      -10.407859933    29.405590455    -2.319737431
 C      -11.604082172    29.505698119    -3.029927708
 C      -12.798074815    29.817767953    -2.372206439
 C      -12.771173890    30.021060678    -0.985811218
 C      -11.576846183    29.913797047    -0.278678522
Si      -14.384365665    29.953252030    -3.296373623
 C      -14.097631923    30.080062879    -5.135157865
 C      -15.451405378    28.416823050    -2.944520605
 C      -15.316616021    31.490158201    -2.669727941
 C       -3.015957195    28.272782162     4.266690606
 C       -1.835006482    30.470811577     2.439452698
 C       -5.114534941    12.691930257    -1.207282400
 C       -4.882636253    12.761780914     1.874206637
 C       -0.655550570    -0.905511379    -1.540863687
 C       -0.620333444    -0.918770298     1.547033160
 H        1.186376038     2.683302610     0.613087316
 H        0.266671985     4.929918767     0.603410732
 H       -3.571841742     3.400008153    -0.599830330
 H       -2.692309387     1.132745174    -0.607669897
 H       -3.360281544     5.704983919    -0.295568869
 H       -0.581798254     6.762723896     0.567994046
 H       -4.208450057     7.544060432    -0.327921217
 H       -5.123113969     9.793975226    -0.333583919
 H       -1.231824091    11.339332846     0.859391303
 H       -0.364878721     9.063510291     0.873247638
 H       -1.884929150    13.436458078    -0.770419094
 H       -2.987566342    15.005129427     1.693996536
 H       -1.826057770    16.894323213     2.345320943
 H        0.017957460    18.490327820     2.123602972
 H        1.438515082    16.323679788    -1.342475173
 H       -0.337088204    14.682831843    -1.033824605
 H        3.555016118    19.156344697    -0.917130331
 H        2.229485831    18.464278365    -1.902517779
 H        3.294390281    17.404051833    -0.922436739
 H        3.304752315    21.767580879    -1.653777685
 H        3.057464649    22.531266362    -0.053063888
 H        3.190756635    23.531516573    -1.536581247
 H       -1.324972757    22.609953135    -1.402730871
 H       -2.744906372    24.294473149    -0.332583373
 H        0.753746396    26.417158888     1.000655174
 H        2.185108664    24.726918810    -0.016962029
 H       -3.058974503    26.231744938     0.877510998
 H       -0.507225217    27.756272793     1.836733909
 H       -3.413573478    28.482797410    -0.407433721
 H       -5.517779880    28.662377127    -1.617624978
 H       -7.594650833    29.576705568     2.039528134
 H       -5.521947439    29.397785695     3.290212770
 H       -7.814871734    29.046250584    -1.733534008
 H       -9.276786977    29.694598436     0.917214018
 H       -9.491593057    29.166419437    -2.856468620
 H      -11.564024771    29.336319325    -4.109528506
 H      -13.673144214    30.267828841    -0.418638809
 H      -11.576448694    30.073605827     0.797861728
 H        1.433821922    19.869723241     1.744661533
 H        2.546258084    20.481671517     0.512069218
 H       -0.374341365    19.793211873    -0.222762159
 H       -0.007012777    21.314456986     0.576811268
 H        1.535718207    20.512377175    -1.975748329
 H       -0.097115620    21.182514091    -2.095921939
 H        2.263428113    -1.029823837    -0.036064804
 H        2.275768316     0.483266960     0.903818824
 H        2.260208445     0.539516289    -0.880114586
 H      -15.051418072    30.201062501    -5.679178472
 H      -13.598826306    29.180127840    -5.535376405
 H      -13.464409582    30.952920567    -5.377567802
 H      -16.381343890    28.540970657    -3.571400875
 C      -14.760808451    27.107823639    -3.368988914
 C      -15.883103434    28.291606423    -1.472381945
 H      -15.501281373    31.313256140    -1.570197372
 C      -14.486660145    32.779454850    -2.806422202
 C      -16.682261709    31.698503092    -3.348236092
 H       -3.655745006    29.088475293     4.711791561
 C       -3.787175092    26.945156106     4.375575726
 C       -1.727711281    28.171498955     5.103018545
 H       -0.874838870    30.339371696     3.016824035
 C       -1.477093929    30.924601464     1.012788205
 C       -2.657514392    31.576100136     3.124388398
 H       -5.954471716    11.957679156    -1.038425685
 C       -5.723518815    14.103160561    -1.280443552
 C       -4.456558414    12.357925623    -2.557976949
 H       -5.182122360    13.849823505     1.865985515
 C       -6.164777068    11.916898284     1.980796270
 C       -4.019858922    12.509721564     3.124269639
 H       -1.779900756    -0.913796292    -1.440233379
 C       -0.305373799    -0.172967204    -2.848770413
 C       -0.182074850    -2.366486622    -1.642203419
 H       -0.142091519    -1.939979598     1.508932299
 C       -0.182856026    -0.235199766     2.855482524
 C       -2.147578107    -1.108559772     1.576555025
 H      -14.492271368    27.081062391    -4.432865053
 H      -15.434064671    26.254993453    -3.200996766
 H      -13.849626212    26.898686877    -2.790132108
 H      -16.469117684    29.148145543    -1.115933979
 H      -15.033542348    28.154971888    -0.788385658
 H      -16.524091905    27.407279021    -1.343204921
 H      -13.513152216    32.724924833    -2.298270668
 H      -15.023657601    33.623747019    -2.351068838
 H      -14.298669951    33.060156513    -3.851250842
 H      -17.360765657    30.843614040    -3.231691536
 H      -16.598726928    31.915509793    -4.421414974
 H      -17.196058206    32.561382752    -2.899877552
 H       -4.753647026    26.957158103     3.852692738
 H       -4.009413382    26.722231938     5.428488110
 H       -3.216184399    26.086977539     3.992358456
 H       -1.155239077    29.107094193     5.137590242
 H       -1.053136258    27.377535900     4.753139231
 H       -1.975625101    27.925502012     6.145649034
 H       -0.840797000    30.209458018     0.473729074
 H       -0.918000822    31.870374868     1.046820251
 H       -2.363487647    31.114520481     0.390335878
 H       -2.874526295    31.367667651     4.179708547
 H       -3.613617237    31.773946140     2.618709139
 H       -2.101041840    32.524450765     3.107250205
 H       -6.287939938    14.381059630    -0.381006619
 H       -6.431757198    14.164734591    -2.118967007
 H       -4.971007727    14.885395931    -1.455694909
 H       -4.033277747    11.344257642    -2.597401496
 H       -3.658721005    13.061966412    -2.831297065
 H       -5.202651169    12.409968768    -3.363573675
 H       -6.885174320    12.114623918     1.176990706
 H       -6.686854148    12.143980226     2.921763423
 H       -5.965518234    10.836028275     1.996490781
 H       -3.098228318    13.107048082     3.150966356
 H       -3.729650177    11.454774620     3.235003616
 H       -4.583663175    12.770316988     4.030944904
 H       -0.661211100     0.867072886    -2.872289838
 H       -0.778336857    -0.678530871    -3.702650034
 H        0.772655178    -0.157988891    -3.057042619
 H       -0.459475162    -2.975082869    -0.771887375
 H        0.903468485    -2.456259885    -1.781021394
 H       -0.643939071    -2.850631519    -2.514977599
 H        0.905693856    -0.133582940     2.952189382
 H       -0.513605706    -0.829255904     3.719518112
 H       -0.623403617     0.764167176     2.983011703
 H       -2.533247580    -1.672884494     0.718166926
 H       -2.695093490    -0.156779331     1.628643005
 H       -2.437949831    -1.677296304     2.471978547

