187   

Si        0.000000000     0.000000000     0.000000000
 C        1.865322270     0.000000000     0.000000000
 C       -0.671480480     1.714115759     0.000000000
 C        0.116521943     2.791443595     0.417989184
 C       -0.396235843     4.088334357     0.416358975
 C       -1.707574012     4.338018735     0.003249762
 C       -2.497581190     3.256963165    -0.409946382
 C       -1.988562426     1.961070825    -0.409574963
 C       -2.285108041     5.678029697    -0.014681905
 C       -1.635208185     6.794561801     0.355427368
 C       -2.208534142     8.136208786     0.339146337
 C       -3.519742742     8.391214293    -0.073209276
 C       -4.026455472     9.690010069    -0.072527644
 C       -3.227746106    10.763729177     0.336089913
 C       -1.914205810    10.511960671     0.750723573
 C       -1.413829086     9.212290693     0.755117021
Si       -3.890028992    12.480445981     0.339496865
 C       -2.505921387    13.671777163     0.392581750
 C       -2.385089480    14.703133683     1.238640265
 C       -1.253607892    15.631746725     1.240954117
 C       -1.233054515    16.677357592     2.174414287
 C       -0.184695398    17.582526244     2.217183954
 C        0.869509492    17.500755838     1.281625575
 C        0.848449152    16.450018795     0.342432765
 C       -0.185886233    15.524590085     0.344993541
 N        1.931928837    18.416829661     1.323750919
 C        1.669257562    19.752674312     1.884807676
 C        2.836148916    18.444780598     0.161301409
 C        0.674185126    20.577595989     1.049095315
 C        0.696637721    22.075623036     1.396723584
 N        1.988662562    22.772997090     1.186978085
 C        2.748089107    22.291999682     0.091873488
 C        2.144955395    22.316042346    -1.182760690
 C        2.839304933    21.858616072    -2.289734504
 C        4.155491006    21.385038403    -2.172245082
 C        4.756605781    21.387236617    -0.912034477
 C        4.073451364    21.847086115     0.209003581
 C        2.728307269    23.010720521     2.437872395
 C        4.846156909    20.912135367    -3.374161124
 C        6.099448007    20.441104769    -3.375375006
Si        7.022297629    19.835735555    -4.832057401
 C        7.739419006    18.191224781    -4.425810278
 C        7.114816851    17.383451743    -3.468770070
 C        7.641642564    16.133900500    -3.146081612
 C        8.793390953    15.659152732    -3.780025712
 C        9.411606206    16.467212136    -4.743451811
 C        8.891339651    17.718553990    -5.064994549
 C        9.378388933    14.357969196    -3.472945513
 C        8.883410002    13.491985668    -2.572368417
 C        9.464749246    12.190172381    -2.262036242
 C       10.618373893    11.710524781    -2.887292548
 C       11.139398148    10.458885942    -2.559076153
 C       10.511518041     9.655548453    -1.602195021
 C        9.352839898    10.133750018    -0.975009329
 C        8.838577525    11.385614169    -1.300385415
Si       11.185272907     8.001263572    -1.156853836
 C       12.493370405     7.444087250    -2.364291952
 C       11.953180717     8.076063091     0.583329178
 C        9.742334024     6.760161990    -1.129209224
 C        5.892754496    19.661668384    -6.350831607
 C        8.407930307    21.073319150    -5.236792190
 C       -4.882364418    12.773739067    -1.257596955
 C       -5.049645037    12.702605052     1.829881070
 C       -0.651458897    -0.911577753    -1.539367784
 C       -0.626893158    -0.913985960     1.547083187
 H        1.149709734     2.659554800     0.751005607
 H        0.239094930     4.909711840     0.742931158
 H       -3.521865394     3.428861066    -0.735059674
 H       -2.652244772     1.157938587    -0.741576734
 H       -3.321375143     5.725491082    -0.361254544
 H       -0.598585053     6.745155199     0.702015863
 H       -4.157990887     7.572543962    -0.399686885
 H       -5.059028466     9.828133140    -0.404427954
 H       -1.247320130    11.314168509     1.084122595
 H       -0.391581537     9.034436969     1.083735240
 H       -1.738185449    13.475994075    -0.374988486
 H       -3.133954043    14.932445878     2.007741744
 H       -2.049978430    16.777126940     2.889751605
 H       -0.186897925    18.358923079     2.975846198
 H        1.644363887    16.343372381    -0.387913137
 H       -0.167159058    14.710918347    -0.382310882
 H        3.575530232    19.259142861     0.266430427
 H        2.312943181    18.593044267    -0.797936630
 H        3.402941243    17.496807277     0.122215383
 H        2.082710554    23.585642587     3.125659690
 H        3.608695366    23.644570292     2.228103862
 H        3.063074669    22.098167752     2.954335799
 H        1.133389448    22.701648529    -1.289180295
 H        2.357483376    21.876757389    -3.267833911
 H        5.781707913    21.031193548    -0.795468378
 H        4.574712655    21.839043960     1.172179396
 H        4.233716678    20.979923968    -4.282199519
 H        6.690555606    20.396000217    -2.444405921
 H        6.207324462    17.700090573    -2.943527214
 H        7.142318383    15.525878629    -2.393722940
 H       10.308950774    16.115456230    -5.248843093
 H        9.415710548    18.305802377    -5.823522298
 H       10.281163464    14.115850376    -4.041006049
 H        7.979653106    13.734965744    -2.005342485
 H       11.123312604    12.314173745    -3.639168615
 H       12.045116864    10.138137454    -3.081075259
 H        8.818454818     9.548912871    -0.220851028
 H        7.938097790    11.739968248    -0.801976369
 H        1.306249539    19.639019035     2.930367448
 H        2.647345858    20.281797835     1.961847979
 H        0.889721750    20.435975236    -0.029594047
 H       -0.351140379    20.182013680     1.187879297
 H       -0.050791997    22.606646773     0.758170602
 H        0.365670494    22.224911638     2.447046445
 H        2.263091593    -1.029063532    -0.055847977
 H        2.276714448     0.466199508     0.912175987
 H        2.259621195     0.556285223    -0.869938919
 H       12.860065216     6.432288419    -2.115002134
 H       13.364504814     8.122446391    -2.365456653
 H       12.092963933     7.406919283    -3.393700891
 H       12.401413586     7.056044558     0.762227095
 C       13.082299873     9.118096072     0.684844370
 C       10.929656287     8.348488914     1.700074969
 H        9.023434157     7.139306481    -0.345578537
 C        8.988576576     6.702870641    -2.470167815
 C       10.165239797     5.335129739    -0.730207458
 H        5.404090497    20.668844762    -6.493187644
 C        6.659649119    19.317575486    -7.640184998
 C        4.783436920    18.614618830    -6.141313279
 H        8.938283718    20.660650081    -6.143520921
 C        7.878454342    22.473762094    -5.592102850
 C        9.437897032    21.199367906    -4.099975049
 H       -5.735647074    12.035978273    -1.233781071
 C       -5.478742471    14.189602599    -1.343688086
 C       -4.053498396    12.499444011    -2.525162381
 H       -5.337274079    13.793884733     1.837661185
 C       -6.341862195    11.872217415     1.730414803
 C       -4.356581247    12.378498135     3.166104138
 H       -1.776301736    -0.916089798    -1.444555230
 C       -0.291921268    -0.187343784    -2.849350088
 C       -0.182447358    -2.374709259    -1.630580802
 H       -0.153545548    -1.937474686     1.512657782
 C       -0.190280727    -0.229898751     2.855578133
 C       -2.155310581    -1.095259409     1.570946451
 H       13.899881862     8.946795111    -0.027095812
 H       13.535441048     9.086385682     1.686099206
 H       12.726428770    10.148481275     0.540999088
 H       10.128781259     7.600020089     1.749778055
 H       10.461746471     9.339578291     1.617416623
 H       11.429172195     8.327621399     2.679758371
 H        8.604170200     7.680759545    -2.794022809
 H        8.113375527     6.043242731    -2.383004917
 H        9.598688503     6.299849346    -3.289286063
 H       10.650674814     5.284659462     0.252978163
 H       10.839192339     4.868202817    -1.460579417
 H        9.280515823     4.684660791    -0.669647838
 H        7.403134037    20.074624297    -7.920447852
 H        5.960144003    19.248298288    -8.486070429
 H        7.171513451    18.346106417    -7.588155070
 H        4.155867427    18.807661802    -5.260724179
 H        5.176348039    17.591783934    -6.046510226
 H        4.106399095    18.604029925    -7.007116656
 H        7.202390048    22.477435928    -6.456812898
 H        8.715203272    23.137320178    -5.853864867
 H        7.352739929    22.958025576    -4.756679596
 H        9.890290068    20.239789530    -3.812452626
 H        9.019308388    21.654493360    -3.191847562
 H       10.268231066    21.847747766    -4.414433699
 H       -6.157884403    14.426989396    -0.514844805
 H       -6.069333047    14.294254146    -2.264904553
 H       -4.710736485    14.975668270    -1.380019307
 H       -3.628320502    11.486234335    -2.556205530
 H       -3.227081047    13.210978408    -2.658640381
 H       -4.687985837    12.592865992    -3.417833929
 H       -6.948707644    12.114289140     0.848802669
 H       -6.980853549    12.066334569     2.604152919
 H       -6.155228096    10.789091694     1.724621763
 H       -3.441067700    12.960681441     3.339457026
 H       -4.090921542    11.315552275     3.260485062
 H       -5.029725863    12.603170703     4.005132868
 H       -0.644427638     0.853625307    -2.880785830
 H       -0.761220572    -0.696398474    -3.703159934
 H        0.787374196    -0.176561245    -3.051498143
 H       -0.467463126    -2.977818852    -0.758901612
 H        0.903554727    -2.469123886    -1.762311151
 H       -0.640731071    -2.861548094    -2.503725582
 H        0.898458071    -0.134723805     2.956082256
 H       -0.527832799    -0.819987542     3.719699234
 H       -0.625590144     0.772276948     2.979135303
 H       -2.539798401    -1.663988825     0.714897196
 H       -2.698050987    -0.140134599     1.612417278
 H       -2.453178415    -1.655428274     2.469237040

