187   

Si        0.000000000     0.000000000     0.000000000
 C        1.866113903     0.000000000     0.000000000
 C       -0.680466387     1.710591228     0.000000000
 C        0.138803018     2.816647458     0.245297380
 C       -0.391322969     4.106849636     0.242007534
 C       -1.752692061     4.318512881     0.012390596
 C       -2.573573927     3.208519983    -0.228956596
 C       -2.044947444     1.921321319    -0.239975979
 C       -2.349149615     5.650420891     0.000151414
 C       -1.674749201     6.795126713     0.203003791
 C       -2.277291411     8.123916974     0.189448553
 C       -1.460732852     9.239179919     0.415754774
 C       -1.992911828    10.527169886     0.411938148
 C       -3.349387588    10.731341578     0.139474309
 C       -4.165353378     9.618488397    -0.102889043
 C       -3.635131300     8.330521700    -0.073108084
Si       -4.111706173    12.405834473     0.119458460
 C       -5.336696066    12.534537511    -1.233787519
 C       -5.242774865    11.849696868    -2.381130672
 C       -6.210845957    11.937574847    -3.476196862
 C       -5.989550502    11.162296324    -4.625655891
 C       -6.871465903    11.205012962    -5.692476654
 C       -8.035749752    11.993921392    -5.613189331
 C       -8.264789144    12.765551224    -4.466825118
 C       -7.346455826    12.747678213    -3.420706656
 N       -8.889820179    11.983235201    -6.752044782
 C       -9.559981664    10.685362875    -6.985954063
 C       -9.775591711    13.148493931    -6.892001035
 C      -10.937506743    10.481501506    -6.325404812
 C      -10.893038530    10.385994564    -4.787455451
 N      -10.893913916     9.017903659    -4.240157995
 C       -9.710632655     8.265253836    -4.375675852
 C       -8.471848964     8.892152042    -4.128591837
 C       -7.290838099     8.183030577    -4.252280249
 C       -7.294870342     6.806402592    -4.521373874
 C       -8.523956772     6.175784681    -4.720759081
 C       -9.717842558     6.887193793    -4.655874791
 C      -12.163490426     8.309601874    -4.468417206
 C       -6.008080405     6.119680241    -4.639350195
 C       -5.869122603     4.812563724    -4.893054826
Si       -4.282617904     3.920255192    -5.047428935
 C       -4.338178073     2.421782619    -3.981875022
 C       -5.093797545     2.450946071    -2.801807570
 C       -5.153931019     1.331747595    -1.976379591
 C       -4.457368329     0.161674227    -2.306078223
 C       -3.698493927     0.139392667    -3.479333503
 C       -3.634176977     1.259133043    -4.307796012
 C       -4.551019957    -0.985202121    -1.409934121
 C       -3.932349727    -2.161246306    -1.609678948
 C       -4.023390973    -3.310232244    -0.716241958
 C       -4.780904140    -3.292302203     0.457726665
 C       -4.840363066    -4.413984555     1.283885221
 C       -4.134573126    -5.575929282     0.956376705
 C       -3.368714012    -5.593916822    -0.217024435
 C       -3.312992549    -4.473401863    -1.040759351
Si       -4.204330159    -7.063381916     2.037919584
 C       -5.618714625    -6.966699699     3.249505389
 C       -4.380952140    -8.606792940     0.939460136
 C       -2.569028833    -7.184221803     3.005861023
 C       -4.059665844     3.406999187    -6.867649173
 C       -2.786487649     4.984670106    -4.559228890
 C       -5.003709009    12.700431294     1.772795563
 C       -2.785694025    13.748538834    -0.110913391
 C       -0.652480682    -0.859096893    -1.567566246
 C       -0.623761465    -0.956326127     1.521237240
 H        1.209503760     2.712863535     0.439214767
 H        0.269320481     4.951399382     0.426466176
 H       -3.636962431     3.348412298    -0.421454899
 H       -2.734445952     1.095144575    -0.449928054
 H       -3.429462972     5.666023012    -0.179861213
 H       -0.598255078     6.781653202     0.393222924
 H       -0.399094697     9.101176186     0.610398707
 H       -1.311118262    11.356497456     0.616888738
 H       -5.234164176     9.718713794    -0.325514005
 H       -4.291802889     7.481917839    -0.260591020
 H       -6.161851233    13.238045762    -1.049768789
 H       -4.422451500    11.145880890    -2.585781562
 H       -5.095567177    10.540382558    -4.693681059
 H       -6.675956408    10.628371403    -6.595498342
 H       -9.151262687    13.387132780    -4.386945227
 H       -7.533828993    13.364912874    -2.542044275
 H      -10.254193966    13.111661117    -7.886030746
 H       -9.164552628    14.068427438    -6.857847411
 H      -10.563281856    13.223925473    -6.126887078
 H      -13.008321893     8.987610379    -4.260219947
 H      -12.241846033     7.471032419    -3.752089115
 H      -12.278363953     7.915073355    -5.490525863
 H       -8.437165959     9.944098738    -3.846277511
 H       -6.341761107     8.698004256    -4.090675369
 H       -8.558418451     5.107272393    -4.936269354
 H      -10.649170249     6.361328623    -4.835501317
 H       -5.148694674     6.790988555    -4.498319319
 H       -6.748598646     4.164407271    -5.037603485
 H       -5.658708052     3.338745168    -2.497637806
 H       -5.750744397     1.368251776    -1.066971026
 H       -3.145033889    -0.756204937    -3.755786939
 H       -3.020017244     1.186372421    -5.209043080
 H       -5.179266775    -0.828307606    -0.528116111
 H       -3.308727272    -2.320491766    -2.495198978
 H       -5.339050323    -2.399705736     0.735207484
 H       -5.455302379    -4.343948137     2.185381549
 H       -2.796926493    -6.474624154    -0.522545586
 H       -2.712516521    -4.505289604    -1.948052648
 H       -9.672113715    10.592176114    -8.092610031
 H       -8.877560101     9.861033774    -6.670713645
 H      -11.621469627    11.296788924    -6.623877001
 H      -11.388543767     9.560751303    -6.745016050
 H      -10.005192464    10.928418827    -4.388270414
 H      -11.774709879    10.912490019    -4.353171204
 H        2.263007362    -1.029141959    -0.053908486
 H        2.275999893     0.466837668     0.912326980
 H        2.261720821     0.554343379    -0.869827142
 H       -5.683371251    -7.885656736     3.859349103
 H       -6.583613395    -6.849783580     2.723359942
 H       -5.507620142    -6.114947321     3.943189043
 H       -3.465531329    -8.624151165     0.279054824
 C       -4.412524435    -9.924468276     1.734103496
 C       -5.618493476    -8.541615563     0.026210420
 H       -2.694668678    -8.054018131     3.712881606
 C       -1.346319764    -7.466149343     2.114385651
 C       -2.286851774    -5.922470382     3.842606708
 H       -3.064073077     2.879434833    -6.924062511
 C       -5.146278741     2.426291315    -7.343459365
 C       -4.015763250     4.608104533    -7.828851992
 H       -2.774267320     5.854598567    -5.277220743
 C       -2.889762824     5.539328223    -3.130374770
 C       -1.449534500     4.231344155    -4.691008460
 H       -5.442707935    13.737775218     1.709433899
 C       -6.157238775    11.707183134     2.000997203
 C       -4.056910910    12.654244310     2.984659932
 H       -2.062254574    13.621570097     0.745877185
 C       -2.005314675    13.581478835    -1.427308119
 C       -3.350518448    15.178945303    -0.046158126
 H       -1.779033146    -0.778025184    -1.504343228
 C       -0.205161071    -0.149509952    -2.858233469
 C       -0.290646894    -2.351486934    -1.654805270
 H       -0.169466482    -1.986247834     1.438126383
 C       -0.154300966    -0.332108533     2.848547474
 C       -2.152817279    -1.114810785     1.566853238
 H       -3.526112181   -10.074176720     2.364062710
 H       -4.445400058   -10.778878620     1.042399445
 H       -5.298660326   -10.016068560     2.376172522
 H       -5.635881226    -7.651112390    -0.618260159
 H       -6.564901405    -8.565275900     0.582675632
 H       -5.635188160    -9.409202892    -0.648805000
 H       -1.427387070    -8.401703093     1.546835863
 H       -0.443859991    -7.563289325     2.735619454
 H       -1.141041149    -6.654757566     1.401733975
 H       -3.081653635    -5.689148080     4.562659722
 H       -2.124173884    -5.027856913     3.223836209
 H       -1.369398836    -6.059794299     4.432842355
 H       -5.216238177     1.519144758    -6.727267208
 H       -4.926503340     2.087011804    -8.365599190
 H       -6.145970747     2.880781646    -7.378486997
 H       -3.200797254     5.310392004    -7.610917974
 H       -4.954241591     5.180603112    -7.841428856
 H       -3.853713480     4.260518791    -8.859021652
 H       -3.800177108     6.121205597    -2.938834369
 H       -2.045690866     6.213575696    -2.921763704
 H       -2.833333746     4.743172626    -2.371730950
 H       -1.240062356     3.882385072    -5.709104345
 H       -1.378398581     3.366049518    -4.014960268
 H       -0.617410979     4.896106017    -4.415372964
 H       -6.905161784    11.712451798     1.196328028
 H       -6.696394016    11.961600593     2.924548452
 H       -5.809887703    10.671070199     2.125031652
 H       -3.252982080    13.399934358     2.939256806
 H       -3.590572274    11.668465592     3.126093534
 H       -4.617005837    12.862390810     3.907852453
 H       -1.525424822    12.598594457    -1.531116392
 H       -1.198612869    14.325731324    -1.485249357
 H       -2.632480712    13.736473998    -2.317270651
 H       -3.855365116    15.406152929     0.901422841
 H       -4.052765257    15.398641728    -0.862256381
 H       -2.533767184    15.909370591    -0.140153276
 H       -0.516937795     0.904932794    -2.897695560
 H       -0.659210709    -0.634852513    -3.733376439
 H        0.880395824    -0.182500682    -3.014297996
 H       -0.701990455    -2.941031591    -0.823163898
 H        0.791000708    -2.531663249    -1.691625816
 H       -0.705699559    -2.786616576    -2.574826080
 H        0.936929491    -0.259652514     2.935532085
 H       -0.490229057    -0.950142772     3.693459964
 H       -0.569353580     0.671575716     3.017657968
 H       -2.566348349    -1.610981369     0.676667559
 H       -2.678177040    -0.158491979     1.693558916
 H       -2.441216366    -1.742862752     2.421858840

