187   

Si        0.000000000     0.000000000     0.000000000
 C        1.865401246     0.000000000     0.000000000
 C       -0.680561148     1.710221656     0.000000000
 C        0.150130353     2.820689972    -0.179156318
 C       -0.379774742     4.110817428    -0.176831300
 C       -1.750565586     4.319613668    -0.004325437
 C       -2.582183236     3.205901575     0.173127750
 C       -2.055351084     1.917402297     0.177742426
 C       -2.347504288     5.651069818     0.004779366
 C       -1.658290238     6.794291857    -0.148378674
 C       -2.244407246     8.129846899    -0.140941563
 C       -3.612642035     8.357234896     0.030232534
 C       -4.125707325     9.654776746     0.029907298
 C       -3.275136290    10.751038366    -0.134557639
 C       -1.901473641    10.526466489    -0.302841387
 C       -1.393884967     9.231350311    -0.305891927
Si       -3.898470721    12.484277906    -0.142921451
 C       -2.465969861    13.542389446     0.259656661
 C       -2.058867729    14.626665862    -0.411433622
 C       -0.893918462    15.422696014    -0.019432095
 C       -0.546003086    16.544103671    -0.788203879
 C        0.547646234    17.323896254    -0.452757355
 C        1.312720456    17.019067253     0.692048941
 C        0.943525126    15.922784108     1.483380473
 C       -0.161657850    15.152387623     1.138146441
 N        2.420984129    17.858680376     0.979103741
 C        3.417785186    17.910192738    -0.120055167
 C        3.035064529    17.697368004     2.306873193
 C        3.720934215    16.573591479    -0.824895355
 C        4.876122026    15.765278729    -0.201794776
 N        4.576965596    14.372553069     0.197935281
 C        3.820487050    13.632741431    -0.768344502
 C        4.543231395    13.074958849    -1.834821961
 C        3.879623248    12.345073458    -2.809755855
 C        2.491486866    12.146885095    -2.745313662
 C        1.782096754    12.693410669    -1.672952767
 C        2.438793729    13.421479123    -0.685667553
 C        4.059601802    14.246068818     1.571082346
 C        1.852211253    11.366015666    -3.807611213
 C        0.541800758    11.095554110    -3.878793833
Si       -0.193730256    10.110720500    -5.237837616
 C        0.762173977    10.316927993    -6.796655238
 C        1.317121523    11.566921848    -7.104062869
 C        2.044191869    11.747592553    -8.277118152
 C        2.225654151    10.689700164    -9.178247634
 C        1.665757811     9.446535224    -8.872477899
 C        0.941128535     9.261143014    -7.695174431
 C        2.995658344    10.928266814   -10.394523878
 C        3.247279860    10.002221804   -11.335070005
 C        4.017323050    10.241017142   -12.551290680
 C        4.577347286    11.483949979   -12.857409420
 C        5.306646322    11.667934474   -14.032092028
 C        5.486571028    10.611710360   -14.930463245
 C        4.925010104     9.364140290   -14.626287167
 C        4.201864716     9.182266053   -13.450877377
Si        6.446112416    10.836936708   -16.485301857
 C        6.785297843    12.638879705   -16.828500254
 C        8.108728368     9.920604769   -16.343286575
 C        5.451128924    10.069795583   -17.915073513
 C       -0.293780478     8.282206396    -4.727004285
 C       -1.960021353    10.743951215    -5.552898574
 C       -4.635424877    12.905168113    -1.839850041
 C       -5.240829688    12.699913056     1.183423633
 C       -0.598449149    -0.928023287    -1.551014569
 C       -0.663218093    -0.898371553     1.541171162
 H        1.229768855     2.719953691    -0.321443669
 H        0.289593054     4.958553747    -0.313989317
 H       -3.652491850     3.346654185     0.310958197
 H       -2.752202032     1.087553809     0.326100224
 H       -3.431244057     5.667808120     0.149494643
 H       -0.573214006     6.773496810    -0.292915606
 H       -4.292532141     7.518369886     0.163691315
 H       -5.203626296     9.772397894     0.164737224
 H       -1.187961792    11.347065370    -0.439961774
 H       -0.322773349     9.076337532    -0.434371993
 H       -1.933972655    13.204467467     1.166814315
 H       -2.564011537    15.001099558    -1.309867650
 H       -1.132378950    16.797068601    -1.671777776
 H        0.810903737    18.188095340    -1.058739727
 H        1.494072849    15.680415766     2.388051575
 H       -0.440663144    14.314395122     1.779588243
 H        3.710195907    18.553215722     2.486075132
 H        3.611330965    16.768669471     2.433741709
 H        2.251522716    17.743446824     3.083628112
 H        4.826137990    14.618804137     2.271300905
 H        3.903023795    13.176479347     1.799956953
 H        3.116360246    14.780556961     1.754794896
 H        5.620668916    13.220565674    -1.883991577
 H        4.448516131    11.917872683    -3.635543687
 H        0.702151454    12.556581134    -1.602487398
 H        1.865641833    13.843482845     0.138496448
 H        2.568214613    11.018640231    -4.567418739
 H       -0.163115022    11.441491784    -3.107720007
 H        1.205731442    12.429792976    -6.438418191
 H        2.473641290    12.723472450    -8.495434221
 H        1.791867927     8.608098499    -9.554790767
 H        0.530607621     8.264751280    -7.510282863
 H        3.374005038    11.948998290   -10.503222812
 H        2.868916084     8.981629754   -11.226366486
 H        4.448470213    12.323516626   -12.176750227
 H        5.721173704    12.662858508   -14.216496860
 H        5.031699265     8.502691957   -15.291590407
 H        3.774072025     8.205829718   -13.231653749
 H        3.009803774    18.630909569    -0.869703523
 H        4.353598026    18.369579244     0.262089467
 H        2.803749844    15.951374527    -0.875958914
 H        3.956958364    16.778467302    -1.887539999
 H        5.710248161    15.692483529    -0.940866393
 H        5.294915306    16.295891392     0.679748042
 H        2.263219746    -1.030124097     0.031633849
 H        2.262923408     0.535517125     0.881285082
 H        2.273729993     0.486469035    -0.903277269
 H        7.326562579    12.767355084   -17.782866386
 H        7.398981683    13.098083582   -16.033751766
 H        5.843363164    13.212252160   -16.901929983
 H        8.666750489    10.153995548   -17.295868950
 C        8.956624012    10.418784861   -15.158437531
 C        7.966056558     8.391722693   -16.238240478
 H        5.325526760     8.978796239   -17.653312826
 C        4.046651643    10.684924239   -18.052414333
 C        6.168374794    10.148661258   -19.274477329
 H       -0.608105545     7.720042875    -5.654090719
 C        1.065518827     7.725463970    -4.267401367
 C       -1.342265103     8.006935139    -3.636488729
 H       -2.509428652    10.629972193    -4.572304873
 C       -1.984621392    12.230439534    -5.951154141
 C       -2.712939096     9.929147513    -6.618160519
 H       -4.913717162    13.998001886    -1.794986399
 C       -3.624645673    12.711584707    -2.982859569
 C       -5.907490458    12.102267315    -2.166256641
 H       -6.089076921    12.020857302     0.878042234
 C       -4.766560869    12.266118901     2.581937111
 C       -5.785376990    14.136872615     1.261409539
 H       -0.078624722    -1.929353720    -1.523199356
 C       -2.116087407    -1.181877543    -1.579980677
 C       -0.193555571    -0.215936880    -2.854919666
 H       -1.787869801    -0.889328949     1.443222931
 C       -0.209798738    -2.365735794     1.639544770
 C       -0.299585105    -0.171957924     2.848887235
 H        9.180082861    11.492465352   -15.202530193
 H        9.927621696     9.903221612   -15.146903287
 H        8.489391425    10.215995781   -14.183933623
 H        7.435927927     7.943504056   -17.087974894
 H        7.458428864     8.073360979   -15.316808381
 H        8.960615182     7.922694278   -16.216314420
 H        3.451061565    10.617084151   -17.130700366
 H        3.475644760    10.152300159   -18.826182960
 H        4.067947208    11.740103766   -18.355428977
 H        7.151823119     9.661105888   -19.275919958
 H        6.305321457    11.179290779   -19.627650305
 H        5.571322453     9.637718175   -20.043825693
 H        1.856049644     7.825146001    -5.023095966
 H        0.979283237     6.650737674    -4.052148509
 H        1.429407363     8.197986255    -3.343600654
 H       -2.365437956     8.267082383    -3.936124262
 H       -1.132458730     8.529587788    -2.692326229
 H       -1.362196992     6.934634092    -3.391133068
 H       -1.523764226    12.889806124    -5.202579236
 H       -3.022611094    12.571738854    -6.070355998
 H       -1.489577141    12.422583143    -6.913938948
 H       -2.805370277     8.864006685    -6.368391362
 H       -2.253929773     9.999143109    -7.614447907
 H       -3.739137147    10.308584793    -6.727052392
 H       -2.694415214    13.282140349    -2.854263053
 H       -4.061970088    13.044694824    -3.934762975
 H       -3.346351185    11.655783022    -3.124521648
 H       -6.722699986    12.265646145    -1.450135479
 H       -5.727148172    11.019715156    -2.228984411
 H       -6.300334588    12.403636458    -3.148386141
 H       -4.400695138    11.230184975     2.616237060
 H       -5.600894261    12.319849759     3.295953995
 H       -3.974558110    12.911959681     2.985207230
 H       -6.221255723    14.489963707     0.317980757
 H       -5.023887725    14.867276097     1.570482987
 H       -6.588167401    14.195116968     2.010603038
 H       -2.481472149    -1.745434562    -0.712274420
 H       -2.379047565    -1.779087521    -2.465387614
 H       -2.701934459    -0.255008653    -1.652813064
 H        0.889784198    -0.069932398    -2.954601029
 H       -0.673161066     0.766566366    -2.971570078
 H       -0.503689727    -0.814576582    -3.723318437
 H       -0.495474184    -2.968786634     0.768035644
 H       -0.677917005    -2.845416249     2.511483201
 H        0.874522489    -2.470428162     1.777768312
 H       -0.642498294     0.872335789     2.874812657
 H        0.779061434    -0.171246618     3.054308012
 H       -0.776993000    -0.672507677     3.703352150

