187   

Si        0.000000000     0.000000000     0.000000000
 C        1.864752752     0.000000000     0.000000000
 C       -0.683192282     1.707513596     0.000000000
 C        0.123545940     2.819739840    -0.257955455
 C       -0.417988232     4.105621514    -0.252383001
 C       -1.778931117     4.305383739    -0.009363863
 C       -2.585739555     3.187330633     0.241297607
 C       -2.048178943     1.904829718     0.249064866
 C       -2.395165056     5.626661309     0.007702014
 C       -1.747624286     6.784817117    -0.202590604
 C       -2.386461303     8.096462974    -0.180510405
 C       -1.606431973     9.235633245    -0.414495929
 C       -2.179863936    10.505190314    -0.401640810
 C       -3.548233541    10.664985539    -0.152676662
 C       -4.328812630     9.527685823     0.083577434
 C       -3.751083486     8.260197799     0.070516974
Si       -4.331497244    12.330746366    -0.129918008
 C       -5.587575942    12.389976496     1.206614799
 C       -5.450715865    11.654250631     2.318447334
 C       -6.383460874    11.621079413     3.443971363
 C       -6.071011958    10.785349261     4.527125518
 C       -6.904552577    10.701274234     5.626796552
 C       -8.031162003    11.540151748     5.744490555
 C       -8.332597206    12.397268718     4.668145433
 C       -7.534659470    12.406644585     3.527984349
 N       -8.863325671    11.434487171     6.873565463
 C       -8.258957440    10.964022492     8.135084560
 C       -9.839602825    12.517647408     7.077896026
 C       -7.206647175    11.922002767     8.729198265
 C       -6.611832930    11.375654468    10.044829225
 N       -5.291274065    10.709113434     9.931585036
 C       -5.337250671     9.590029138     9.043253085
 C       -5.976777087     8.428624679     9.512302136
 C       -6.058082862     7.305184001     8.703128017
 C       -5.519880808     7.313015928     7.408158215
 C       -4.857970677     8.461183063     6.964517899
 C       -4.730142501     9.578470568     7.782614273
 C       -4.200248139    11.665688970     9.669732272
 C       -5.619861178     6.111012087     6.573819518
 C       -5.124829047     6.061275122     5.331739636
Si       -5.140334962     4.682572674     4.134840370
 C       -5.787379761     5.463883092     2.591081941
 C       -6.468616730     6.683639343     2.699284463
 C       -6.976173769     7.314712605     1.567743431
 C       -6.848069736     6.727617718     0.305320377
 C       -6.187555667     5.497223643     0.200287294
 C       -5.667786276     4.869632666     1.331747930
 C       -7.372119198     7.370383539    -0.894879067
 C       -8.017751624     8.549018630    -0.884746720
 C       -8.555237785     9.222830074    -2.059650730
 C       -8.450045001     8.696366714    -3.348699521
 C       -8.981753629     9.380950406    -4.441624079
 C       -9.646348965    10.597791168    -4.262285427
 C       -9.766503582    11.120803386    -2.967461655
 C       -9.231889391    10.437629633    -1.879892139
Si      -10.354687953    11.516484933    -5.689622717
 C      -10.475951130    10.446828705    -7.211770812
 C      -12.071948833    12.175722915    -5.205030082
 C       -9.209815304    12.995515440    -6.054662963
 C       -3.367316150     4.073812126     3.821761026
 C       -6.228626904     3.226421757     4.663707832
 C       -3.029424893    13.678611830     0.199142303
 C       -5.149842530    12.679753728    -1.808369070
 C       -0.612884360    -0.934675719    -1.540265506
 C       -0.666086001    -0.884837751     1.550067734
 H        1.193093753     2.723930079    -0.462701221
 H        0.232493821     4.956113913    -0.446554179
 H       -3.651314746     3.320771156     0.425868871
 H       -2.727103843     1.072921779     0.456904524
 H       -3.473959518     5.625117899     0.208300324
 H       -0.674155571     6.797631803    -0.407202773
 H       -0.541735465     9.131786355    -0.610571087
 H       -1.522065099    11.356143469    -0.595095434
 H       -5.406289177     9.587797010     0.278983797
 H       -4.381524492     7.390413557     0.263992803
 H       -6.439078676    13.063122428     1.052939588
 H       -4.591344295    10.979456669     2.470915040
 H       -5.176570629    10.160911623     4.487358885
 H       -6.687267257     9.978798609     6.410100127
 H       -9.197162298    13.050273930     4.706816420
 H       -7.807766887    13.056900144     2.696848236
 H      -10.413196016    12.342158234     8.003053316
 H      -10.567155672    12.509376624     6.245683330
 H       -9.379175252    13.516820115     7.138421129
 H       -4.126934644    12.353413373    10.530162775
 H       -4.323136012    12.266679887     8.755415855
 H       -3.242974292    11.119316792     9.608887319
 H       -6.396884269     8.418329802    10.515973338
 H       -6.549642252     6.408715623     9.078926021
 H       -4.409210875     8.485550257     5.968896777
 H       -4.191582477    10.449191380     7.416705033
 H       -6.134609157     5.272874330     7.052842874
 H       -4.597316533     6.940231285     4.907597065
 H       -6.626889114     7.189321291     3.659629168
 H       -7.485400787     8.272024975     1.682251351
 H       -6.083369028     5.020819703    -0.772616319
 H       -5.179710071     3.900004786     1.198226297
 H       -7.204363092     6.826272795    -1.826936543
 H       -8.176645157     9.087558366     0.056929225
 H       -7.941024208     7.748145626    -3.511969745
 H       -8.862630014     8.925525378    -5.428413437
 H      -10.281621077    12.064637745    -2.768377392
 H       -9.342494516    10.852915950    -0.878733931
 H       -9.081582629    10.793306402     8.865397537
 H       -7.807156093     9.958462061     7.958478664
 H       -6.405111631    12.096143015     7.984822456
 H       -7.661971746    12.912469707     8.905669431
 H       -6.502491125    12.203569172    10.780305517
 H       -7.309964104    10.645272546    10.512489278
 H        2.263135141    -1.029570217     0.038483014
 H        2.261036757     0.542295151     0.877709642
 H        2.273033694     0.481157458    -0.906099110
 H      -10.933983475    10.999136799    -8.051656892
 H      -11.101508791     9.555946718    -7.020522177
 H       -9.484069879    10.095823081    -7.546636794
 H      -11.906676363    12.852906141    -4.317055391
 C      -12.743270891    13.007956714    -6.312079615
 C      -13.031318343    11.053698840    -4.768454480
 H       -9.643182973    13.503432866    -6.963351376
 C       -9.152988328    14.025385074    -4.911773390
 C       -7.771956200    12.557135691    -6.389477737
 H       -3.433653015     3.381604380     2.930473866
 C       -2.405026082     5.217899020     3.457484618
 C       -2.772267920     3.276573392     4.995012728
 H       -5.838775675     2.896545619     5.670573416
 C       -7.706873796     3.623124094     4.831793958
 C       -6.143471438     2.025351226     3.703538264
 H       -2.272937150    13.593619602    -0.633343200
 C       -3.610976648    15.103609586     0.166247425
 C       -2.296164891    13.471899516     1.537053053
 H       -5.625949755    13.698527121    -1.716963889
 C       -4.149788525    12.722113532    -2.977373572
 C       -6.252871219    11.663330315    -2.137318529
 H       -0.127116488    -1.952022777    -1.492210351
 C       -2.138253795    -1.137672547    -1.576584376
 C       -0.175453485    -0.257941742    -2.852426659
 H       -1.783993156    -0.953851639     1.408636297
 C       -0.123926394    -2.314762054     1.719861066
 C       -0.405419110    -0.090540936     2.843163860
 H      -12.146327895    13.873269829    -6.627978490
 H      -13.700557506    13.410777830    -5.950323272
 H      -12.978313086    12.418596388    -7.208273782
 H      -12.641071861    10.448039000    -3.937910274
 H      -13.289041890    10.366912747    -5.585567550
 H      -13.979486266    11.483816992    -4.415583896
 H      -10.132282318    14.450096934    -4.658062054
 H       -8.517427889    14.874255365    -5.203294484
 H       -8.712891118    13.616414032    -3.990816285
 H       -7.711586066    11.878958250    -7.250345831
 H       -7.266738880    12.067085889    -5.544209752
 H       -7.161149149    13.434347921    -6.646600113
 H       -2.747126298     5.828263187     2.608320070
 H       -1.431925013     4.805114698     3.151300001
 H       -2.204090228     5.896206701     4.296537092
 H       -3.360633355     2.391135184     5.265696285
 H       -2.642904534     3.882242138     5.902480866
 H       -1.770482432     2.909696109     4.725772020
 H       -7.862271717     4.448927136     5.539669153
 H       -8.285328499     2.772361930     5.218036435
 H       -8.181510613     3.912024382     3.882924116
 H       -5.127079097     1.623718537     3.596254711
 H       -6.524678925     2.253855680     2.698421078
 H       -6.761241478     1.198353817     4.082129553
 H       -4.079444322    15.360154478    -0.792517849
 H       -2.809724171    15.840049314     0.322568822
 H       -4.350115195    15.281652264     0.959493424
 H       -1.803175930    12.493383638     1.618877014
 H       -2.960080159    13.579310685     2.407132436
 H       -1.506258823    14.226334574     1.655987331
 H       -3.374086254    13.488927860    -2.861810305
 H       -4.677961480    12.955845176    -3.913235702
 H       -3.647054325    11.758428174    -3.143355208
 H       -7.037018439    11.607254324    -1.369421210
 H       -5.870427198    10.643025350    -2.290265876
 H       -6.761970035    11.937420995    -3.073238305
 H       -2.525622218    -1.691314557    -0.712170184
 H       -2.417236614    -1.723588907    -2.464639695
 H       -2.692907358    -0.191539668    -1.649104384
 H        0.912742767    -0.149032929    -2.946027480
 H       -0.622324874     0.737391243    -2.988919763
 H       -0.498698180    -0.860647623    -3.713270450
 H       -0.327531033    -2.963003854     0.857873616
 H       -0.600950438    -2.796811313     2.585580141
 H        0.957146015    -2.342389324     1.910835027
 H       -0.824902792     0.925789093     2.818764989
 H        0.662009211    -0.001561082     3.084525685
 H       -0.874758071    -0.597677424     3.698034467

