187   

Si        0.000000000     0.000000000     0.000000000
 C        1.865445214     0.000000000     0.000000000
 C       -0.674815580     1.712819498     0.000000000
 C        0.144587813     2.812390717    -0.273882000
 C       -0.378855646     4.105272949    -0.270804627
 C       -1.733286599     4.326210103    -0.009379930
 C       -2.554518006     3.223161953     0.260284499
 C       -2.032916544     1.932716329     0.267919029
 C       -2.325185770     5.659193207     0.004563173
 C       -1.652277060     6.799381169    -0.226716852
 C       -2.249868793     8.130318736    -0.211433735
 C       -1.432344054     9.238361705    -0.469932741
 C       -1.958773489    10.527319035    -0.465921122
 C       -3.318301336    10.736861399    -0.203612903
 C       -4.136721705     9.632643874     0.055520466
 C       -3.605953522     8.343761041     0.052424858
Si       -4.017669887    12.438347207    -0.197402089
 C       -5.837651592    12.352766938    -0.336738081
 C       -6.697001683    12.993495617     0.465951314
 C       -8.153411425    12.918241873     0.345818525
 C       -8.935474551    13.645096493     1.259605493
 C      -10.316475817    13.613337284     1.196182168
 C      -10.964127558    12.797027884     0.244658830
 C      -10.187255791    12.068470854    -0.667577261
 C       -8.797887506    12.155110162    -0.627993852
 N      -12.380570901    12.807835052     0.229504701
 C      -13.032795422    12.447472890     1.502175595
 C      -13.023425460    12.209063364    -0.950206219
 C      -13.155319871    10.939060842     1.798084654
 C      -11.822777589    10.284442075     2.202781295
 N      -11.204325774    10.918562542     3.392202857
 C       -9.850678714    10.562376066     3.615440318
 C       -8.953210528    10.546052151     2.528609077
 C       -7.624304664    10.203042672     2.710316814
 C       -7.120436816     9.915190705     3.987455266
 C       -8.001618045     9.962995792     5.069365039
 C       -9.343530033    10.285900788     4.896939924
 C      -12.075242021    10.886025236     4.579778961
 C       -5.707340309     9.557305434     4.128186251
 C       -5.120430106     9.263769316     5.296080319
Si       -3.363833315     8.811442915     5.528028038
 C       -3.234440275     7.275446753     6.534996248
 C       -4.365196931     6.489822328     6.787701005
 C       -4.261133339     5.328866858     7.550173001
 C       -3.025445956     4.918754723     8.066852956
 C       -1.896710573     5.701557178     7.806190012
 C       -1.998177848     6.866544178     7.047665833
 C       -2.967703355     3.695203210     8.859722351
 C       -1.851226999     3.194547858     9.415341612
 C       -1.794837288     1.970835084    10.208027693
 C       -2.922852023     1.188578864    10.468494578
 C       -2.823705444     0.025266175    11.231689196
 C       -1.592037957    -0.378541958    11.756282687
 C       -0.458841545     0.404284121    11.496501791
 C       -0.560172934     1.561905201    10.730172400
Si       -1.444336548    -1.910834183    12.765257864
 C       -3.116169201    -2.552806865    13.287736826
 C       -0.564304627    -3.257080369    11.746924888
 C       -0.382542910    -1.518204351    14.295711427
 C       -2.548261590     8.499303225     3.838726617
 C       -2.452451593    10.208848900     6.440043397
 C       -3.522536292    13.283141575     1.433690430
 C       -3.315321997    13.431155215    -1.656094983
 C       -0.614355466    -0.927003044    -1.544266456
 C       -0.657880693    -0.894019114     1.546690667
 H        1.210594388     2.701253214    -0.489924125
 H        0.281799086     4.944827364    -0.478645131
 H       -3.611781848     3.374254414     0.471063405
 H       -2.719834679     1.111573782     0.491746783
 H       -3.398300578     5.679558604     0.220301903
 H       -0.581158925     6.779437004    -0.445942994
 H       -0.374218236     9.093094230    -0.677364781
 H       -1.273889633    11.353275238    -0.675614338
 H       -5.205784394     9.739134575     0.267369169
 H       -4.262619934     7.499555023     0.257384273
 H       -6.192300855    11.725866986    -1.169953372
 H       -6.370236929    13.633622399     1.297903571
 H       -8.449552449    14.248847749     2.027043962
 H      -10.908543888    14.204352753     1.892154894
 H      -10.655303287    11.435878550    -1.414126378
 H       -8.213288375    11.597711779    -1.360455340
 H      -14.108884431    12.402034025    -0.905965304
 H      -12.866193770    11.124016800    -1.053776502
 H      -12.642015889    12.708732146    -1.859210779
 H      -13.064372299    11.302599500     4.327986661
 H      -11.651879626    11.544751267     5.359863242
 H      -12.217238285     9.877158961     4.998369796
 H       -9.302704317    10.811795359     1.530756652
 H       -6.957892946    10.184933608     1.845573217
 H       -7.640106039     9.744307423     6.075065850
 H       -9.989211460    10.300719454     5.768425818
 H       -5.168276299     9.545960129     3.170037283
 H       -5.689991614     9.294230961     6.239284101
 H       -5.354190128     6.755952359     6.401363143
 H       -5.151575957     4.733306968     7.741034959
 H       -0.924735047     5.403809032     8.194587061
 H       -1.081322216     7.437405776     6.875850189
 H       -3.927352577     3.184506804     8.982480246
 H       -0.891468574     3.704673705     9.292194094
 H       -3.894085860     1.482652797    10.074849746
 H       -3.741100527    -0.545004711    11.401197737
 H        0.529850296     0.138289584    11.880938237
 H        0.331270612     2.155883720    10.537624192
 H      -12.481891043    12.937414987     2.341068865
 H      -14.048998046    12.904511323     1.482773802
 H      -13.913563992    10.790593082     2.590035011
 H      -13.552855784    10.406262180     0.913189971
 H      -11.981864348     9.195543841     2.370329247
 H      -11.115651405    10.378945159     1.343662712
 H        2.263406215    -1.029262112     0.050141236
 H        2.261077738     0.551127704     0.872579472
 H        2.274921569     0.470725145    -0.910743507
 H       -3.016753801    -3.450140841    13.924210821
 H       -3.738264246    -2.829047413    12.418526949
 H       -3.668083775    -1.792622254    13.869933467
 H       -0.561075303    -4.178466062    12.398166423
 C       -1.313466759    -3.595404695    10.444914292
 C        0.895532838    -2.914150544    11.399992582
 H        0.619838567    -1.183236647    13.898915539
 C       -0.964077359    -0.367004297    15.136249397
 C       -0.145507446    -2.735305010    15.207382955
 H       -2.878223637     9.343286408     3.164069890
 C       -1.010425035     8.497262927     3.862310187
 C       -3.035524350     7.174144380     3.225511345
 H       -1.383341848     9.860583788     6.540540592
 C       -2.447128306    11.542806801     5.674778287
 C       -3.008949347    10.446030894     7.855773530
 H       -4.014569537    14.298350191     1.417575319
 C       -4.033496533    12.517454604     2.666647607
 C       -2.004604555    13.492451036     1.578904445
 H       -2.199666209    13.478979148    -1.493667427
 C       -3.567773782    12.745247768    -3.010686240
 C       -3.848780935    14.873253799    -1.715799667
 H       -0.117886074    -1.939715784    -1.508918050
 C       -2.137855571    -1.144853088    -1.569356193
 C       -0.194078864    -0.235012915    -2.854085409
 H       -1.782157161    -0.901650880     1.444023224
 C       -0.185208214    -2.354312286     1.659248177
 C       -0.309926066    -0.151454210     2.849334032
 H       -2.345343947    -3.931150666    10.609564609
 H       -0.803942959    -4.415612326     9.919257991
 H       -1.346571838    -2.752097385     9.740000900
 H        1.523182986    -2.735162142    12.282109947
 H        0.982572388    -2.039498089    10.739960431
 H        1.359225345    -3.752052960    10.859237997
 H       -1.110117319     0.558766050    14.561238647
 H       -0.276758989    -0.113808440    15.956011991
 H       -1.924335495    -0.619905407    15.604835920
 H        0.335005282    -3.577283986    14.692634064
 H       -1.068029817    -3.109143032    15.670955221
 H        0.523808736    -2.459074071    16.035209102
 H       -0.577929584     9.436360087     4.227881064
 H       -0.625750468     8.359864815     2.839955685
 H       -0.592172737     7.674614969     4.457492039
 H       -4.123046844     7.132487105     3.080438139
 H       -2.744123946     6.292693952     3.814382725
 H       -2.582004332     7.034746572     2.232031176
 H       -2.003174525    11.467783720     4.672798979
 H       -1.851441228    12.288242331     6.219963090
 H       -3.453156856    11.972127095     5.564509426
 H       -2.995060473     9.545258572     8.485391149
 H       -4.036740238    10.833609764     7.852526503
 H       -2.398436611    11.194491846     8.380292545
 H       -5.117310192    12.330840602     2.662844499
 H       -3.828562919    13.093582230     3.580126028
 H       -3.538282763    11.543916256     2.795428047
 H       -1.568852570    14.103534265     0.778895156
 H       -1.444858971    12.547415059     1.623319186
 H       -1.787347330    14.021096365     2.518577364
 H       -3.173460529    11.720568231    -3.060500478
 H       -3.069002010    13.304494313    -3.815185200
 H       -4.632571964    12.705253685    -3.278331622
 H       -3.624364535    15.458032928    -0.814384227
 H       -4.934509680    14.921831199    -1.882425222
 H       -3.385176970    15.411898622    -2.554701320
 H       -2.511957799    -1.708693886    -0.705448072
 H       -2.418929536    -1.726601472    -2.459318406
 H       -2.702496287    -0.203796252    -1.629166079
 H        0.892049295    -0.112970482    -2.954463390
 H       -0.653251122     0.756128841    -2.979468447
 H       -0.516568706    -0.834592692    -3.717313319
 H       -0.458553907    -2.968548848     0.791824379
 H       -0.651212974    -2.832511116     2.533288430
 H        0.899622024    -2.443208888     1.803866862
 H       -0.669924969     0.887653137     2.866486070
 H        0.767653465    -0.131209239     3.058570463
 H       -0.781977432    -0.652341986     3.706971454

