187   

Si        0.000000000     0.000000000     0.000000000
 C        1.865606564     0.000000000     0.000000000
 C       -0.674452913     1.711345864     0.000000000
 C        0.101060128     2.771794684     0.478314040
 C       -0.401727284     4.071520785     0.482098806
 C       -1.682878379     4.344679757    -0.003032363
 C       -2.459417811     3.280745661    -0.480502544
 C       -1.965956254     1.978575017    -0.472208615
 C       -2.241364104     5.691817836    -0.014552528
 C       -1.600784574     6.786957491     0.428570916
 C       -2.158624344     8.134406283     0.417368372
 C       -1.380571276     9.188118438     0.910575828
 C       -1.867186095    10.492576783     0.921816635
 C       -3.138524264    10.775986380     0.412311171
 C       -3.917095785     9.725220827    -0.089069902
 C       -3.433562683     8.418515989    -0.080715682
Si       -3.831090804    12.479695181     0.401950767
 C       -4.672480346    12.792510577    -1.193830514
 C       -4.287220671    12.206873778    -2.335946673
 C       -4.924328063    12.422225903    -3.635361566
 C       -4.415760445    11.741311040    -4.752878188
 C       -4.978703317    11.906658928    -6.006588498
 C       -6.058864021    12.795987445    -6.187649480
 C       -6.570143974    13.478376796    -5.072135413
 C       -6.014800680    13.274954860    -3.812880258
 N       -6.601635083    12.932697486    -7.484757618
 C       -5.626218853    13.157981553    -8.571020315
 C       -7.821724282    13.745291622    -7.610190949
 C       -4.486711811    14.141812371    -8.254449170
 C       -5.012839116    15.514698615    -7.802515177
 N       -3.956145881    16.517505499    -7.608936481
 C       -3.045546754    16.336192888    -6.553217681
 C       -3.342505908    15.496877429    -5.459415576
 C       -2.429294373    15.332726137    -4.428969754
 C       -1.213656348    16.031202482    -4.419078081
 C       -0.934445202    16.886452899    -5.488918646
 C       -1.828767168    17.047457950    -6.537507652
 C       -3.407440874    17.026746719    -8.877829391
 C       -0.275523720    15.830925901    -3.313515448
 C        0.907523673    16.452861538    -3.218029036
Si        2.113702216    16.240908618    -1.864223349
 C        2.063214641    14.566628350    -1.101181808
 C        2.038905811    13.429548883    -1.920425723
 C        2.000620228    12.154660501    -1.360634546
 C        1.997087247    11.981044945     0.029660127
 C        2.025372829    13.116631122     0.844009103
 C        2.056426422    14.394253696     0.286785264
 C        1.956402651    10.628246563     0.577273454
 C        1.942424090    10.347231069     1.891377476
 C        1.901996280     9.008448322     2.469091175
 C        1.872712886     7.844354887     1.696788827
 C        1.834493246     6.588570471     2.303440369
 C        1.793797834     6.469045594     3.696281083
 C        1.806561483     7.636655238     4.471494580
 C        1.858700560     8.887996270     3.864814399
Si        1.742857220     4.822133339     4.521317148
 C        2.416530557     3.484289825     3.411468583
 C        2.756184288     4.900411945     6.130482539
 C       -0.060390120     4.414029772     4.976768369
 C        3.858308366    16.540417872    -2.562919319
 C        1.752445972    17.575858969    -0.552972821
 C       -5.059537070    12.691705002     1.833029063
 C       -2.431807511    13.752384239     0.589947029
 C       -0.663808150    -0.940669545    -1.513222920
 C       -0.611017107    -0.867495341     1.581758548
 H        1.119461624     2.621424055     0.850280577
 H        0.219764097     4.882808341     0.860383554
 H       -3.461463723     3.470289719    -0.860027696
 H       -2.619431284     1.188236154    -0.850533659
 H       -3.252999362     5.764942615    -0.422443651
 H       -0.589381618     6.715792020     0.844875885
 H       -0.384544643     8.988162580     1.306675667
 H       -1.216713424    11.268948185     1.335562843
 H       -4.917813557     9.890077154    -0.501575156
 H       -4.059326942     7.618590747    -0.470601480
 H       -5.506962588    13.505925543    -1.161341126
 H       -3.448170902    11.495754994    -2.382930468
 H       -3.567939692    11.064945064    -4.632632703
 H       -4.591960476    11.347242479    -6.854166835
 H       -7.398776564    14.171270621    -5.174133599
 H       -6.433435899    13.808786141    -2.958740760
 H       -8.233777492    13.626019719    -8.627114313
 H       -7.676170987    14.819234450    -7.416061092
 H       -8.587684987    13.359120147    -6.912663665
 H       -4.181117536    17.021534562    -9.662366100
 H       -2.542612038    16.447698938    -9.240810356
 H       -3.099726008    18.079787436    -8.739635059
 H       -4.283640498    14.950751832    -5.416162014
 H       -2.674361219    14.653400631    -3.608308230
 H        0.002334850    17.444988786    -5.508065047
 H       -1.573957106    17.727138813    -7.343246935
 H       -0.628478555    15.104205452    -2.568337915
 H        1.226980291    17.181550104    -3.980112597
 H        2.034676720    13.504650015    -3.013046277
 H        1.971924529    11.284262730    -2.013900109
 H        2.022065523    13.013124012     1.927480591
 H        2.079405338    15.240942848     0.978282929
 H        1.935709985     9.828440659    -0.168249996
 H        1.964113672    11.156253500     2.628769081
 H        1.900725077     7.909590313     0.609944854
 H        1.849029157     5.711770709     1.649255028
 H        1.772270711     7.608494204     5.564131817
 H        1.867938846     9.782065794     4.485320450
 H       -5.188818851    12.161130302    -8.822571723
 H       -6.170325290    13.488980429    -9.482321819
 H       -3.825897129    13.722644918    -7.466616963
 H       -3.842402327    14.254158759    -9.145739364
 H       -5.739338248    15.915431347    -8.544655649
 H       -5.578434880    15.417349588    -6.844741359
 H        2.261600996    -1.030217679    -0.045691578
 H        2.278372249     0.474653874     0.907172194
 H        2.261114874     0.546022536    -0.875798693
 H        2.423424768     2.507508929     3.927422525
 H        3.454474446     3.708117610     3.106677870
 H        1.810386583     3.371003598     2.494634653
 H        2.250389785     5.670590534     6.782260299
 C        2.775679549     3.571350380     6.906940947
 C        4.205778019     5.361805430     5.894020706
 H       -0.018664897     3.434575829     5.535307403
 C       -0.697506574     5.467782109     5.901045722
 C       -0.969388947     4.223374097     3.751279726
 H        3.847284811    17.587427159    -2.983357652
 C        4.957635370    16.468275333    -1.488758941
 C        4.212523960    15.572770338    -3.706089369
 H        2.501520200    17.414963170     0.274466634
 C        1.933589490    19.009376877    -1.083694937
 C        0.338449546    17.445071188     0.042120920
 H       -5.422033152    13.758756527     1.780637658
 C       -6.282940339    11.766408692     1.702416218
 C       -4.414054437    12.473511017     3.213275274
 H       -1.959897677    13.556857442     1.595490698
 C       -1.354664378    13.577268859    -0.492081247
 C       -2.925055117    15.210102876     0.567692171
 H       -1.788022607    -0.943494116    -1.408909639
 C       -0.315502333    -0.243170094    -2.840764220
 C       -0.195503094    -2.405485502    -1.578738439
 H       -0.131188110    -1.887905119     1.580195262
 C       -0.172155522    -0.132741816     2.862308413
 C       -2.137996839    -1.056114328     1.619965139
 H        1.774717840     3.212582204     7.179859557
 H        3.323980814     3.697083930     7.851938702
 H        3.284132075     2.764464577     6.362888034
 H        4.275717420     6.334634825     5.387174127
 H        4.794404028     4.642249571     5.309554081
 H        4.726627119     5.478202074     6.855180804
 H       -0.159456110     5.606618576     6.846369143
 H       -1.717964964     5.159850245     6.172598712
 H       -0.794888274     6.452212226     5.420034919
 H       -0.634909266     3.423948417     3.075227360
 H       -1.084224354     5.138123882     3.151116465
 H       -1.983496318     3.943659573     4.070771715
 H        4.823758040    17.195892217    -0.678065641
 H        5.937597455    16.685564490    -1.937631302
 H        5.044822181    15.472231127    -1.031551158
 H        3.488448334    15.588310863    -4.532153546
 H        4.310831887    14.531468212    -3.367662229
 H        5.183861410    15.845354436    -4.142643765
 H        2.946716253    19.213364267    -1.452477721
 H        1.750688728    19.734422245    -0.277571404
 H        1.226609958    19.259896437    -1.887129087
 H        0.144303449    16.465964489     0.501192065
 H       -0.452936448    17.623532683    -0.701538435
 H        0.191500446    18.192177247     0.834389148
 H       -6.829968793    11.896302167     0.759010205
 H       -7.001819554    11.975953166     2.507041796
 H       -6.023418819    10.701691169     1.793250626
 H       -3.584769959    13.162054708     3.420367181
 H       -4.039910571    11.448866098     3.353430934
 H       -5.156594645    12.639457451     4.006778695
 H       -0.888767758    12.581086468    -0.503082745
 H       -0.529193277    14.283090692    -0.314499980
 H       -1.730150217    13.772717661    -1.506802358
 H       -3.645721106    15.439709589     1.361549908
 H       -3.380685084    15.492183124    -0.392415071
 H       -2.076617749    15.894838947     0.715316416
 H       -0.667561360     0.797146259    -2.890361517
 H       -0.792514715    -0.769289717    -3.679932466
 H        0.762004952    -0.237363989    -3.052527784
 H       -0.470727817    -2.990123247    -0.691400194
 H        0.889007915    -2.502756408    -1.720374485
 H       -0.663328147    -2.910673877    -2.436334415
 H        0.916508986    -0.028716213     2.954502659
 H       -0.503370926    -0.692077085     3.748881931
 H       -0.612686128     0.871497010     2.950785129
 H       -2.523791858    -1.656099277     0.786152049
 H       -2.686086321    -0.103041424     1.630409654
 H       -2.428592678    -1.586770603     2.538240665

