187   

Si        0.000000000     0.000000000     0.000000000
 C        1.865105390     0.000000000     0.000000000
 C       -0.685462800     1.708193575     0.000000000
 C        0.108886579     2.808166242    -0.338299201
 C       -0.424819301     4.097015019    -0.333777354
 C       -1.763159565     4.314725621     0.003054672
 C       -2.559131946     3.210737057     0.337442854
 C       -2.029372490     1.923669861     0.334631255
 C       -2.366888421     5.642714833     0.022203291
 C       -1.723118977     6.784439245    -0.274417034
 C       -2.336016693     8.108700639    -0.252397199
 C       -1.553111233     9.222020043    -0.583411897
 C       -2.097371201    10.504462766    -0.575356660
 C       -3.436279505    10.704699534    -0.220596936
 C       -4.220110310     9.593438991     0.112761231
 C       -3.676000938     8.310720093     0.091489606
Si       -4.194002960    12.381138581    -0.197027190
 C       -5.418411468    12.541906487     1.151576971
 C       -5.343595501    11.873547111     2.310732681
 C       -6.316765283    11.993792168     3.396819366
 C       -6.124697284    11.238046164     4.562557195
 C       -7.014932737    11.313720392     5.620797867
 C       -8.116722447    12.194916898     5.567548127
 C       -8.310399828    12.953042573     4.397112708
 C       -7.433781461    12.830138137     3.326566835
 N       -9.012921525    12.261137170     6.650116878
 C       -8.448390800    12.064295846     7.997723992
 C      -10.029637631    13.326829831     6.609153860
 C       -7.418995634    13.141751093     8.382793842
 C       -7.104516481    13.161366780     9.887531119
 N       -8.259566937    13.383914212    10.788133660
 C       -9.250932799    14.263692685    10.296007527
 C       -8.844871445    15.545222915     9.867107939
 C       -9.777019618    16.443751496     9.376998572
 C      -11.141143315    16.115965074     9.326987864
 C      -11.541230636    14.856001970     9.775788820
 C      -10.616329434    13.938908359    10.263414351
 C       -8.736840926    12.151118275    11.435697048
 C      -12.084762840    17.103372844     8.799238005
 C      -13.405783824    16.902008377     8.703665118
Si      -14.593070609    18.127653343     8.046434687
 C      -14.048891528    19.859250981     8.340481567
 C      -13.268743021    20.169085376     9.462106330
 C      -12.852417554    21.477639582     9.692290367
 C      -13.215770228    22.510077893     8.817585737
 C      -14.002104512    22.199332548     7.704726031
 C      -14.417084136    20.889264910     7.468714506
 C      -12.755093174    23.865368548     9.101005627
 C      -13.028559725    24.940272347     8.342371015
 C      -12.568482513    26.295943709     8.624747923
 C      -11.782344542    26.609515775     9.736417459
 C      -11.364610094    27.920152372     9.967759252
 C      -11.731594602    28.948348479     9.094054581
 C      -12.521549922    28.636627627     7.979042904
 C      -12.932051987    27.326840391     7.747690696
Si      -11.189536501    30.683759816     9.383569553
 C      -10.426332569    30.892463002    11.072902560
 C       -9.903501314    31.179477354     8.070618739
 C      -12.709520937    31.815324717     9.202841245
 C      -14.806418962    17.818502626     6.181030499
 C      -16.267376888    17.858285420     8.907779886
 C       -2.853922421    13.713349474     0.023242054
 C       -5.080719328    12.675589610    -1.854032327
 C       -0.615565383    -0.920466184    -1.548381992
 C       -0.652057618    -0.910131564     1.540090316
 H        1.162508010     2.700175977    -0.609934920
 H        0.215156768     4.936858324    -0.597877939
 H       -3.604525753     3.358285454     0.602255652
 H       -2.699042752     1.101979465     0.603919827
 H       -3.424094747     5.658658870     0.304578874
 H       -0.666949625     6.771821485    -0.557590275
 H       -0.507868342     9.086855986    -0.853894738
 H       -1.440010907    11.333550138    -0.850253606
 H       -5.273664377     9.690714763     0.397768341
 H       -4.307442899     7.462733650     0.350601991
 H       -6.233157487    13.253680007     0.952980077
 H       -4.533938816    11.163655129     2.534563703
 H       -5.266293636    10.568774168     4.635485399
 H       -6.856536139    10.688082575     6.494163088
 H       -9.149539437    13.635978021     4.310621266
 H       -7.617209913    13.415487703     2.424466938
 H      -10.633960575    13.313849398     7.534110821
 H      -10.719905333    13.133950862     5.768542611
 H       -9.605524384    14.339118728     6.504069147
 H       -7.888548251    11.669309550    11.953785949
 H       -9.187251289    11.418704138    10.748158558
 H       -9.475930997    12.409284070    12.215525848
 H       -7.795522009    15.824488187     9.929183554
 H       -9.445739088    17.426392555     9.037566800
 H      -12.595894246    14.578253178     9.750967352
 H      -10.965741456    12.968441523    10.601209311
 H      -11.602266603    18.041475178     8.490033110
 H      -13.861463608    15.948503137     9.012233218
 H      -12.961367339    19.404643957    10.183854793
 H      -12.240618930    21.698341536    10.565182189
 H      -14.299241973    22.982735677     7.010074706
 H      -15.030919136    20.708646065     6.582115322
 H      -12.147637376    23.962470112    10.005659685
 H      -13.636157227    24.843054544     7.437886762
 H      -11.486739910    25.828124662    10.434165292
 H      -10.749429777    28.103493148    10.853101712
 H      -12.840201644    29.399419989     7.262871274
 H      -13.543958695    27.104144383     6.875692142
 H       -9.297068173    12.056531487     8.719785545
 H       -7.995881720    11.049720936     8.053236295
 H       -6.482198465    12.986066688     7.811989343
 H       -7.787857309    14.136840747     8.060459760
 H       -6.590642103    12.219251662    10.177727370
 H       -6.379256099    13.985311093    10.096917488
 H        2.262585326    -1.029511403     0.049135460
 H        2.260854378     0.550745679     0.872738953
 H        2.275280795     0.471685365    -0.910057233
 H      -10.137138200    31.943496635    11.252039117
 H       -9.519664213    30.273521833    11.191190882
 H      -11.138070634    30.604625751    11.867834153
 H       -9.569931956    32.220535680     8.350712713
 C       -8.666659117    30.262430583     8.082110690
 C      -10.465736140    31.229714861     6.638789062
 H      -13.086297472    31.660445901     8.149998099
 C      -13.845471174    31.434225482    10.169407927
 C      -12.386268452    33.310346805     9.372805255
 H      -15.600599573    18.539950396     5.832428661
 C      -13.516856629    18.106407510     5.391493333
 C      -15.284025625    16.392531169     5.853538847
 H      -16.566635414    16.793922135     8.683793477
 C      -16.166757364    18.015597749    10.435656377
 C      -17.374598529    18.787383559     8.380835046
 H       -2.146312867    13.592757517    -0.847092977
 C       -3.412416176    15.147200514    -0.015451404
 C       -2.052145367    13.525953079     1.323876254
 H       -5.519152798    13.713247813    -1.792774861
 C       -4.131796354    12.627573314    -3.064219481
 C       -6.234167664    11.682452229    -2.083252858
 H       -0.124819961    -1.935878953    -1.515511327
 C       -2.140408052    -1.128644581    -1.573704311
 C       -0.190713522    -0.226623555    -2.855575925
 H       -1.776765916    -0.915790156     1.443544575
 C       -0.181336315    -2.372437840     1.634341537
 C       -0.295489427    -0.182874403     2.849228129
 H       -8.150462810    30.237720110     9.050471848
 H       -7.927770562    30.617248145     7.349285928
 H       -8.901440795    29.224884016     7.803997523
 H      -11.312532020    31.918388027     6.525976837
 H      -10.780244767    30.243425558     6.269761028
 H       -9.689898196    31.582349632     5.943457380
 H      -14.169177149    30.388430286    10.067662432
 H      -14.733524856    32.050672688     9.969580762
 H      -13.585707910    31.599004588    11.223504483
 H      -11.634018590    33.675955169     8.661907558
 H      -12.040884198    33.561896376    10.384344022
 H      -13.290647307    33.911626709     9.199188686
 H      -13.141118230    19.130243880     5.527538435
 H      -13.698785042    17.986757158     4.314244749
 H      -12.697811942    17.417799572     5.645178576
 H      -16.242641296    16.135357923     6.321787002
 H      -14.553802243    15.621477185     6.136769141
 H      -15.435901187    16.287661642     4.769449545
 H      -15.434901829    17.338860821    10.897383747
 H      -17.135311798    17.787420894    10.902871871
 H      -15.911690003    19.040000778    10.743834342
 H      -17.571905330    18.666410858     7.308129589
 H      -17.164802245    19.850973345     8.565156662
 H      -18.323233707    18.570271147     8.893152529
 H       -3.929872891    15.388176023    -0.952688258
 H       -2.591158096    15.872618702     0.076106553
 H       -4.102308339    15.359484193     0.813380444
 H       -1.572175422    12.540846103     1.404174700
 H       -2.665001136    13.667770278     2.226119823
 H       -1.243847410    14.268346856     1.380045232
 H       -3.329693637    13.375218981    -3.019316517
 H       -4.690527376    12.832260595    -3.988913449
 H       -3.663550472    11.642374810    -3.202083233
 H       -6.988173174    11.697301987    -1.284330877
 H       -5.888229072    10.644600200    -2.194194641
 H       -6.765355233    11.929449138    -3.013267452
 H       -2.516848284    -1.699217787    -0.715337695
 H       -2.426405830    -1.699090299    -2.469441895
 H       -2.699513802    -0.183449479    -1.622464463
 H        0.896145882    -0.111141604    -2.955458865
 H       -0.643979137     0.767735561    -2.977750268
 H       -0.516884649    -0.821262656    -3.720913293
 H       -0.461916478    -2.976641090     0.761971594
 H       -0.642404680    -2.859374715     2.505995190
 H        0.904300419    -2.465118002     1.770322225
 H       -0.650322541     0.857365641     2.878200137
 H        0.783444405    -0.169758764     3.052905861
 H       -0.765320119    -0.691334321     3.703146235

