187   

Si        0.000000000     0.000000000     0.000000000
 C        1.864997342     0.000000000     0.000000000
 C       -0.683250226     1.708012600     0.000000000
 C        0.115065826     2.807870909    -0.328900153
 C       -0.417336615     4.097351798    -0.324497431
 C       -1.754391721     4.313573750     0.015910591
 C       -2.554290986     3.209927004     0.342805867
 C       -2.028768106     1.921888230     0.329261300
 C       -2.360300219     5.638195557     0.036493410
 C       -1.732635233     6.788850714    -0.259767099
 C       -2.384702324     8.094109114    -0.224508812
 C       -3.730837673     8.234576107     0.126626784
 C       -4.333128739     9.489380945     0.153833509
 C       -3.600861552    10.631822638    -0.187533827
 C       -2.255832274    10.496884574    -0.550290449
 C       -1.656303728     9.238945959    -0.570253931
Si       -4.418495677    12.275639271    -0.143709312
 C       -3.208738440    13.612727016     0.137252129
 C       -3.100749081    14.731655698    -0.591133157
 C       -2.117599669    15.785603407    -0.338165935
 C       -2.101072090    16.913019211    -1.170389488
 C       -1.190703881    17.939505397    -0.974261152
 C       -0.216251194    17.844891759     0.042667621
 C       -0.226687369    16.706202454     0.875178922
 C       -1.174688103    15.709861830     0.691282177
 N        0.709938245    18.872022412     0.253832215
 C        0.910669352    19.882009171    -0.793109859
 C        1.907676852    18.553618634     1.043911509
 C        1.481696841    19.347624332    -2.117079761
 C        3.002777633    19.135386849    -2.034810197
 N        3.592726100    18.601720252    -3.270110688
 C        3.293358583    17.278372042    -3.638722743
 C        2.710805648    16.367678467    -2.733665262
 C        2.427320246    15.068020074    -3.128061441
 C        2.751499853    14.612945292    -4.412935144
 C        3.355521619    15.510082448    -5.299701563
 C        3.630693079    16.817519746    -4.927418525
 C        3.652008256    19.591109177    -4.360169503
 C        2.435509454    13.233679708    -4.790484234
 C        2.710124219    12.717233270    -5.996002953
Si        2.346244011    11.011615339    -6.535675899
 C        0.868454551    10.279920505    -5.727774819
 C       -0.200812279    11.088708360    -5.323357576
 C       -1.317713461    10.524899349    -4.711298679
 C       -1.404898346     9.140967018    -4.515055771
 C       -0.340305530     8.335560626    -4.929738010
 C        0.786092599     8.897697960    -5.526793846
 C       -2.589987620     8.587046405    -3.870539565
 C       -2.771366541     7.279889222    -3.617760959
 C       -3.950903523     6.714305792    -2.974466541
 C       -5.026273753     7.500620445    -2.552150794
 C       -6.135479056     6.919301074    -1.940977201
 C       -6.179051718     5.538117465    -1.716669519
 C       -5.098277151     4.749726683    -2.127918135
 C       -3.997529546     5.332590393    -2.750503850
Si       -7.658444072     4.803200749    -0.907481532
 C       -9.227727616     5.556610185    -1.573943410
 C       -7.669245213     2.916309359    -1.152419632
 C       -7.517462420     5.156342851     0.960845306
 C        2.045504799    11.043212693    -8.415155627
 C        3.876388027     9.935009309    -6.180973560
 C       -5.333901067    12.500127776    -1.798503183
 C       -5.698434719    12.314074894     1.264819231
 C       -0.621943411    -0.912536258    -1.551002318
 C       -0.654068671    -0.910964775     1.538568768
 H        1.169566067     2.698894423    -0.595284285
 H        0.221682069     4.938315282    -0.587445554
 H       -3.600960853     3.359677129     0.605191641
 H       -2.700553804     1.098998847     0.588281717
 H       -3.421495786     5.644518482     0.312028931
 H       -0.679571922     6.801615684    -0.549246492
 H       -4.324388239     7.356339863     0.381074914
 H       -5.386103213     9.534050674     0.444579484
 H       -1.641576660    11.358567876    -0.829435147
 H       -0.611996204     9.148033829    -0.863523123
 H       -2.546462685    13.429907229     0.999520326
 H       -3.748575579    14.945145628    -1.451614786
 H       -2.823508641    16.993884413    -1.983582700
 H       -1.233241724    18.809703571    -1.621042050
 H        0.495765438    16.599612234     1.677258003
 H       -1.168924504    14.845914139     1.358407537
 H        2.624905485    19.389689393     1.025403006
 H        2.425484278    17.642319539     0.697307986
 H        1.611743054    18.408738516     2.100631088
 H        3.734922223    20.612032591    -3.954314893
 H        2.774557399    19.553668945    -5.026591038
 H        4.562727386    19.410258813    -4.960558425
 H        2.453930672    16.675180721    -1.724302779
 H        1.947016984    14.391292866    -2.418574764
 H        3.621806767    15.183526116    -6.306228247
 H        4.110003538    17.478386219    -5.642005240
 H        1.940450663    12.662505715    -3.993689432
 H        3.216920629    13.320659827    -6.766799506
 H       -0.189526519    12.174831326    -5.461415699
 H       -2.132127281    11.170369927    -4.385425759
 H       -0.381809362     7.257326601    -4.786117232
 H        1.587918399     8.217054554    -5.825044250
 H       -3.348668402     9.321801555    -3.585865695
 H       -2.007489936     6.546439443    -3.893319890
 H       -5.003244698     8.579737871    -2.700161781
 H       -6.953320571     7.582908521    -1.647274732
 H       -5.074207783     3.667443199    -1.975391565
 H       -3.162596326     4.704817104    -3.058424131
 H       -0.074316886    20.375002883    -0.980789471
 H        1.564851514    20.686084959    -0.385584095
 H        0.983265103    18.395059647    -2.394850475
 H        1.242431408    20.049252239    -2.936972816
 H        3.515649741    20.094763294    -1.795163555
 H        3.259851245    18.442474146    -1.200921415
 H        2.263038450    -1.029246958     0.049602336
 H        2.260037697     0.551502670     0.872690163
 H        2.274865815     0.471765988    -0.910117465
 H      -10.118948547     5.106172996    -1.102949684
 H       -9.309527315     5.393441700    -2.664338034
 H       -9.269715241     6.645425266    -1.397528512
 H       -6.676326893     2.544161362    -0.763752978
 C       -8.778472961     2.202570557    -0.358219880
 C       -7.780921449     2.510188614    -2.633316427
 H       -8.439072750     4.704429755     1.426992984
 C       -6.282392853     4.503519142     1.608313191
 C       -7.506500099     6.660961783     1.288034625
 H        2.981408619    11.472815824    -8.875025275
 C        1.816202858     9.645077683    -9.014825699
 C        0.863190493    11.951667342    -8.797945507
 H        3.653153237     8.918625237    -6.616030965
 C        5.158275801    10.464821219    -6.847985396
 C        4.131485634     9.765779658    -4.672432541
 H       -5.768628393    13.540055343    -1.774868491
 C       -4.388742823    12.398827864    -3.009882440
 C       -6.490683474    11.502751950    -1.991300700
 H       -6.458688870    11.516798995     1.020953461
 C       -5.079602496    11.977079625     2.633069834
 C       -6.438084866    13.659563933     1.365523875
 H       -0.136723116    -1.930522682    -1.523577010
 C       -2.148250300    -1.111368143    -1.575567921
 C       -0.195981197    -0.214848040    -2.856019560
 H       -1.778275063    -0.921479828     1.437667026
 C       -0.177189407    -2.371081315     1.636084135
 C       -0.305885514    -0.180585213     2.848221377
 H       -8.714444936     2.369999635     0.724651636
 H       -8.704799170     1.115198920    -0.504955710
 H       -9.788788961     2.486490785    -0.680852680
 H       -7.005839011     2.958820988    -3.270874248
 H       -8.754618504     2.764122465    -3.073138232
 H       -7.671226638     1.421189819    -2.735329495
 H       -6.255750082     3.412457087     1.493789703
 H       -6.278233686     4.697597773     2.690809392
 H       -5.336027471     4.907319517     1.220764897
 H       -8.403676938     7.187649249     0.939280350
 H       -6.629078409     7.181887135     0.877053785
 H       -7.469437566     6.808272834     2.377079792
 H        2.661655883     8.962002688    -8.863908001
 H        1.673288556     9.720833313   -10.102419782
 H        0.914477553     9.153605571    -8.621682666
 H        0.977737069    12.987237179    -8.449584456
 H       -0.100144113    11.579577490    -8.420037463
 H        0.764908750    12.002535525    -9.891398204
 H        5.079949726    10.547356216    -7.939352695
 H        5.994523489     9.778527575    -6.651585827
 H        5.467921751    11.444872878    -6.458185747
 H        3.276288059     9.338989046    -4.130061724
 H        4.397921691    10.710668136    -4.176586581
 H        4.974880557     9.081317649    -4.506146525
 H       -3.546189895    13.103250644    -2.969626501
 H       -4.935801269    12.623951626    -3.936037267
 H       -3.970546564    11.388987943    -3.133311866
 H       -7.276443204    11.597537746    -1.231372184
 H       -6.157463807    10.454840658    -2.001423241
 H       -6.980678730    11.678365698    -2.959919683
 H       -4.565662774    11.005280095     2.650994114
 H       -5.865591418    11.923312911     3.399496932
 H       -4.364938747    12.736690623     2.978288188
 H       -6.977078794    13.930070464     0.448616090
 H       -5.771024343    14.496572415     1.617904597
 H       -7.192315886    13.616225451     2.164020407
 H       -2.526637397    -1.683322075    -0.719004736
 H       -2.438142888    -1.677290217    -2.472857149
 H       -2.701537516    -0.162360132    -1.620138133
 H        0.891249159    -0.103059315    -2.956276682
 H       -0.645756561     0.781695279    -2.973152754
 H       -0.524831366    -0.805058945    -3.723295962
 H       -0.450141639    -2.976940577     0.762494306
 H       -0.640586385    -2.859664608     2.505555901
 H        0.908209710    -2.458370141     1.777861915
 H       -0.664500915     0.858491075     2.873920884
 H        0.772198279    -0.163051817     3.056297171
 H       -0.777520696    -0.689485674     3.700823980

