187   

Si        0.000000000     0.000000000     0.000000000
 C        1.865067965     0.000000000     0.000000000
 C       -0.678816681     1.711194075     0.000000000
 C        0.093005139     2.792199533     0.438023851
 C       -0.430083050     4.085273347     0.434325863
 C       -1.735990949     4.326320968    -0.000275692
 C       -2.509933114     3.241315256    -0.433287712
 C       -1.990560873     1.949819047    -0.431283595
 C       -2.326991941     5.660060420    -0.022569108
 C       -1.699962565     6.784521059     0.362707749
 C       -2.297739968     8.115624170     0.337605640
 C       -1.532483963     9.207823948     0.767923112
 C       -2.062168738    10.495715317     0.761118438
 C       -3.375884433    10.720006800     0.331395241
 C       -4.142069790     9.631601439    -0.098753549
 C       -3.605467569     8.344736001    -0.099224924
Si       -4.089316303    12.416270338     0.316892626
 C       -5.912634948    12.304183710     0.283487029
 C       -6.724050973    12.951188250    -0.562974541
 C       -8.182730045    12.831158868    -0.553472468
 C       -8.928585749    13.559826067    -1.491371847
 C      -10.310887956    13.482651690    -1.526006662
 C      -11.005803589    12.689439217    -0.586541220
 C      -10.257769925    11.956723659     0.355569459
 C       -8.870228102    12.019533027     0.352405898
 N      -12.404930761    12.619345608    -0.631770063
 C      -13.145775288    13.797677432    -1.109545850
 C      -13.081670396    11.853182114     0.423745675
 C      -12.847978430    15.105954228    -0.357602006
 C      -13.502361246    15.123129069     1.034504253
 N      -13.071936325    16.234981813     1.892564728
 C      -11.770996913    16.198618074     2.434889928
 C      -10.915451971    15.091500010     2.281667453
 C       -9.642374276    15.104392479     2.835196702
 C       -9.198601714    16.186198498     3.605802069
 C      -10.062680569    17.272368283     3.783086281
 C      -11.327024406    17.285974003     3.214435886
 C      -13.527948787    17.550142652     1.406646090
 C       -7.848025260    16.160240672     4.171775119
 C       -7.340175563    17.148716508     4.919849377
Si       -5.674602485    17.205216990     5.665285429
 C       -5.802355118    17.635793594     7.449228046
 C       -7.001918031    17.427392306     8.140821506
 C       -7.101594228    17.752399122     9.491374800
 C       -6.005263332    18.282004078    10.184455435
 C       -4.807470109    18.482581800     9.492078408
 C       -4.705070242    18.162340551     8.139166733
 C       -6.159812283    18.606467576    11.598674341
 C       -5.192899163    19.121925285    12.376735018
 C       -5.349555233    19.445715780    13.790961218
 C       -6.547206091    19.244858164    14.482107335
 C       -6.653162073    19.568590938    15.834701894
 C       -5.562820983    20.107675688    16.524822090
 C       -4.360696883    20.310975780    15.833609673
 C       -4.256344443    19.981628060    14.485117947
Si       -5.687757785    20.539763855    18.309810709
 C       -7.462313555    20.573415826    18.884012973
 C       -4.734534344    19.253077196    19.339081997
 C       -4.878529919    22.242662117    18.572718212
 C       -4.798459856    15.527817842     5.497214862
 C       -4.661333775    18.542571536     4.765786648
 C       -3.547308597    13.342805655     1.885341860
 C       -3.428712240    13.352840588    -1.200851176
 C       -0.649155439    -0.916470945    -1.537615922
 C       -0.625403790    -0.913554498     1.548193440
 H        1.120987378     2.665825151     0.788706383
 H        0.192443070     4.910025786     0.776438940
 H       -3.529856914     3.406932812    -0.775312112
 H       -2.642430146     1.143642696    -0.779192419
 H       -3.357684429     5.696152115    -0.388308748
 H       -0.669826933     6.751124223     0.728568297
 H       -0.511752421     9.051049637     1.111015936
 H       -1.417396124    11.309048953     1.104824633
 H       -5.173150239     9.749300815    -0.448510712
 H       -4.220005684     7.514558403    -0.442707952
 H       -6.319761133    11.633814053     1.058991498
 H       -6.352055903    13.632209311    -1.339535578
 H       -8.414241179    14.196003944    -2.212774444
 H      -10.855781848    14.036958797    -2.283918685
 H      -10.750163235    11.330806067     1.092221275
 H       -8.314877082    11.432289510     1.086028210
 H      -14.174223047    11.884527740     0.280920939
 H      -12.853564493    12.206088359     1.444317484
 H      -12.779589715    10.791300360     0.344172358
 H      -14.500550792    17.455329994     0.897742333
 H      -12.815220965    18.025126126     0.713089264
 H      -13.683032417    18.222475387     2.269815037
 H      -11.221073710    14.223751352     1.702144337
 H       -8.984415799    14.249805989     2.665784367
 H       -9.744883730    18.128409021     4.380662145
 H      -11.975898497    18.140337683     3.381218762
 H       -7.289702978    15.247902742     3.925228870
 H       -7.932658228    18.053846617     5.138116482
 H       -7.888819023    17.011579679     7.651198570
 H       -8.043158575    17.588883750    10.012310128
 H       -3.941104341    18.892420834    10.007667127
 H       -3.743843830    18.341614788     7.649941372
 H       -7.151938940    18.397119041    12.009811517
 H       -4.200773471    19.331492140    11.966758365
 H       -7.412064584    18.830498232    13.967249047
 H       -7.615497616    19.387756385    16.321489465
 H       -3.475742584    20.729959470    16.320932438
 H       -3.314118678    20.145446137    13.965719136
 H      -12.904252884    13.927450963    -2.192620362
 H      -14.235408334    13.573960867    -1.074801404
 H      -11.751461852    15.252515391    -0.262892484
 H      -13.203169455    15.966216267    -0.953578713
 H      -14.610950422    15.180513211     0.936740544
 H      -13.299651074    14.172389423     1.578952501
 H        2.262988679    -1.029697414    -0.039968062
 H        2.276388643     0.480538595     0.904792831
 H        2.259311570     0.543126052    -0.878308712
 H       -7.532413282    20.880104618    19.942915824
 H       -7.941083147    19.582815007    18.792487034
 H       -8.056760740    21.291716237    18.290607410
 H       -4.892370743    19.547064225    20.416958379
 C       -5.278368139    17.825247652    19.148947989
 C       -3.219950177    19.244224568    19.064984992
 H       -3.800400912    22.124214624    18.259613030
 C       -5.507231529    23.336428875    17.690575081
 C       -4.894123422    22.710226793    20.038980684
 H       -4.877162907    15.246003092     4.405473028
 C       -3.306907719    15.572610350     5.872557180
 C       -5.486181222    14.424655115     6.322111186
 H       -3.614263912    18.472502281     5.179324742
 C       -4.590298682    18.328259713     3.244112534
 C       -5.187128818    19.962622749     5.044301510
 H       -2.419944984    13.287918955     1.898763387
 C       -3.948714076    14.827509023     1.880839260
 C       -4.070534131    12.681000279     3.172004242
 H       -3.974408819    14.340470526    -1.219293637
 C       -1.919089855    13.644139634    -1.127316949
 C       -3.725014386    12.615766097    -2.519613165
 H       -1.773828117    -0.926634864    -1.441117750
 C       -0.295156338    -0.192333478    -2.849163774
 C       -0.173203757    -2.377426813    -1.627891560
 H       -0.156823327    -1.939120269     1.510202260
 C       -0.180873976    -0.233748476     2.856197383
 C       -2.154516700    -1.087774615     1.577163174
 H       -6.340590764    17.724844087    19.406345899
 H       -4.736962913    17.125591609    19.801796503
 H       -5.147764917    17.451770608    18.122989262
 H       -2.734814610    20.207417152    19.267449118
 H       -2.974482201    18.951946224    18.034181296
 H       -2.725064127    18.509203041    19.716532097
 H       -5.480572494    23.096969060    16.617790856
 H       -4.955025206    24.279694800    17.808286956
 H       -6.550629116    23.554102824    17.954549754
 H       -4.398499464    22.010206674    20.723957788
 H       -5.908048008    22.890133934    20.420228244
 H       -4.356680330    23.665060563    20.133882490
 H       -2.720073661    16.253617579     5.243354307
 H       -2.856439434    14.576727595     5.749225771
 H       -3.137267385    15.853178405     6.921699577
 H       -6.551887762    14.299375688     6.084929116
 H       -5.409240753    14.592634008     7.405978340
 H       -5.010129299    13.453350211     6.126657986
 H       -4.142537284    17.367225644     2.959991678
 H       -3.967212558    19.106919596     2.782122829
 H       -5.574418877    18.392714537     2.757368747
 H       -5.225568909    20.211919233     6.114127321
 H       -6.188268529    20.137908133     4.627281866
 H       -4.525244589    20.707272929     4.580017634
 H       -3.583755823    15.378650611     1.004691816
 H       -3.515335535    15.330264885     2.759277487
 H       -5.037570298    14.975737576     1.934460205
 H       -3.792484524    11.621952083     3.262024515
 H       -5.162751330    12.748709905     3.274409505
 H       -3.644809575    13.183816352     4.053510620
 H       -1.633335091    14.250292322    -0.258247352
 H       -1.602675519    14.211821486    -2.014504686
 H       -1.307462110    12.730891223    -1.116788715
 H       -4.791877450    12.405562077    -2.676033578
 H       -3.187592789    11.659919585    -2.603112070
 H       -3.401433459    13.225965024    -3.374479956
 H       -0.651142353     0.847413797    -2.881056016
 H       -0.764577205    -0.703976653    -3.701364330
 H        0.783670658    -0.178170882    -3.053656980
 H       -0.454517302    -2.981181453    -0.755460876
 H        0.913126761    -2.466809248    -1.760517628
 H       -0.629958643    -2.867274363    -2.500174154
 H        0.908719116    -0.144533120     2.953124490
 H       -0.518548588    -0.823435551     3.720572277
 H       -0.610565771     0.770435277     2.982849182
 H       -2.544784403    -1.653544019     0.721781713
 H       -2.692676483    -0.130160473     1.621656063
 H       -2.451886819    -1.647691582     2.475779676

