187   

Si        0.000000000     0.000000000     0.000000000
 C        1.865098413     0.000000000     0.000000000
 C       -0.674891194     1.712927531     0.000000000
 C        0.103776217     2.790974262    -0.433367062
 C       -0.413547126     4.086243805    -0.430850280
 C       -1.720535278     4.332848713    -0.001989127
 C       -2.501285071     3.250813174     0.426098074
 C       -1.987669968     1.956892668     0.424944325
 C       -2.304222723     5.670004207     0.018203461
 C       -1.666960389     6.789700620    -0.364036317
 C       -2.251988620     8.126417308    -0.343307181
 C       -3.560069654     8.369186441     0.086476971
 C       -4.079910314     9.662635926     0.090140218
 C       -3.297515434    10.743584086    -0.331231347
 C       -1.987430643    10.504313641    -0.763250170
 C       -1.474096909     9.209619015    -0.772220376
Si       -3.981820998    12.451036385    -0.327066635
 C       -2.619045732    13.666086550    -0.409581816
 C       -2.535750434    14.695516741    -1.262219821
 C       -1.423227905    15.646633754    -1.293370236
 C       -1.445381515    16.686952276    -2.232715467
 C       -0.416888089    17.612836492    -2.302869748
 C        0.709668498    17.496986919    -1.460343329
 C        0.733382518    16.450220927    -0.519103783
 C       -0.328430635    15.559657144    -0.429120850
 N        1.750153453    18.442519162    -1.538518168
 C        2.000499522    19.052873952    -2.856971568
 C        2.995535732    18.120580288    -0.820289431
 C        2.432320304    18.032198547    -3.921910784
 C        2.542909251    18.703964548    -5.299909103
 N        2.984192072    17.779120919    -6.359412559
 C        4.270407328    17.222018143    -6.226307224
 C        5.300247681    17.960872763    -5.605093341
 C        6.569149757    17.420950345    -5.469574766
 C        6.878769892    16.155112123    -5.986173204
 C        5.866301252    15.437864752    -6.629424209
 C        4.584734824    15.956950362    -6.758290048
 C        1.910070467    16.872213906    -6.800328112
 C        8.235211598    15.631230890    -5.815477314
 C        8.639811388    14.437177064    -6.267552194
Si       10.315779849    13.731753920    -6.084823361
 C       10.918130505    13.135133245    -7.717160251
 C       10.351029852    13.621788979    -8.899610118
 C       10.804923066    13.171957749   -10.138902636
 C       11.839906743    12.236770040   -10.224142733
 C       12.410402658    11.755812579    -9.037957789
 C       11.956859773    12.199285224    -7.798435507
 C       12.346593500    11.738220653   -11.498512790
 C       11.889029853    12.116172837   -12.704162381
 C       12.395129196    11.618144809   -13.978901402
 C       13.426858822    10.679893710   -14.065835467
 C       13.880103502    10.230849838   -15.306174842
 C       13.314123966    10.716569871   -16.488889530
 C       12.279242788    11.657932854   -16.404516304
 C       11.824937033    12.099673227   -15.165026636
Si       13.901035495    10.134041718   -18.133482721
 C       15.513089110     9.205231395   -17.997935269
 C       12.594368692     8.981925075   -18.900560883
 C       14.109117176    11.650581082   -19.265088855
 C       11.537151005    15.019705546    -5.402645692
 C       10.226953178    12.268827705    -4.870916134
 C       -5.171134368    12.651948345    -1.797320897
 C       -4.950285977    12.735445960     1.286200150
 C       -0.625416181    -0.911808874    -1.549241526
 C       -0.651206334    -0.915715458     1.536939310
 H        1.132938892     2.660621117    -0.779307150
 H        0.214357278     4.908362696    -0.769622483
 H       -3.522109427     3.420496266     0.763200603
 H       -2.644746780     1.153091946     0.768428037
 H       -3.336409609     5.712648066     0.378122877
 H       -0.634909406     6.747586521    -0.724368629
 H       -4.185919448     7.544842577     0.422866393
 H       -5.109430411     9.790689463     0.435763883
 H       -1.333355223    11.312418405    -1.106785750
 H       -0.454874017     9.041173192    -1.114879098
 H       -1.832886403    13.487815551     0.343315341
 H       -3.304508180    14.906026233    -2.017017932
 H       -2.291988656    16.781104780    -2.913467880
 H       -0.485725213    18.426971634    -3.018224267
 H        1.575847107    16.327608986     0.154255027
 H       -0.290856932    14.768255364     0.321734916
 H        3.733011931    18.927955144    -0.964872087
 H        3.454636892    17.170865953    -1.141036216
 H        2.786645705    18.071122043     0.263738324
 H        0.952412391    17.417208426    -6.849181625
 H        1.776330866    15.996822931    -6.143357423
 H        2.129744380    16.522185667    -7.825278870
 H        5.105018422    18.957811490    -5.221311666
 H        7.341892727    18.001189536    -4.964233417
 H        6.078770598    14.449900587    -7.042265229
 H        3.829854979    15.364128162    -7.265044631
 H        8.899840649    16.320268130    -5.278297929
 H        7.943326342    13.765737660    -6.797591547
 H        9.541031829    14.358803006    -8.894709333
 H       10.344420849    13.560906003   -11.045268088
 H       13.217174236    11.026985300    -9.082880561
 H       12.438103634    11.788052352    -6.906984371
 H       13.155842353    11.007032011   -11.414449257
 H       11.079597072    12.847493071   -12.787832377
 H       13.887397769    10.289034371   -13.160378931
 H       14.689015548     9.495098229   -15.310160647
 H       11.799239284    12.072966409   -17.295283018
 H       11.018636898    12.829386577   -15.119758054
 H        1.078221697    19.590136026    -3.176076878
 H        2.777394497    19.841410290    -2.735741135
 H        3.399146818    17.570362202    -3.642663286
 H        1.709559261    17.193657971    -3.962320861
 H        1.562266210    19.137018570    -5.602127843
 H        3.250046311    19.563727817    -5.263468834
 H        2.262940709    -1.029034495     0.055971222
 H        2.259674037     0.556679992     0.869637610
 H        2.276258513     0.466095685    -0.912393775
 H       15.881762032     8.901229060   -18.993923344
 H       15.409063822     8.290432592   -17.388697883
 H       16.294249599     9.833747515   -17.532855415
 H       13.042361769     8.615888206   -19.869361705
 C       12.298807810     7.755465165   -18.017761688
 C       11.265029556     9.685872497   -19.226584969
 H       13.088496256    12.128360733   -19.332545145
 C       15.078896923    12.693397740   -18.680264980
 C       14.557199653    11.293888137   -20.693608372
 H       11.068678233    15.421051661    -4.457733949
 C       12.910034902    14.426955152    -5.038060814
 C       11.749695631    16.197017606    -6.371963022
 H       11.283705997    11.887650982    -4.765430278
 C        9.725513127    12.675151647    -3.474041127
 C        9.356835466    11.115421811    -5.401212764
 H       -5.473000598    13.739385246    -1.804604269
 C       -4.497456597    12.330561538    -3.144145498
 C       -6.450371411    11.805381537    -1.671866646
 H       -5.791922606    11.983886070     1.279948808
 C       -4.094884941    12.479438265     2.539815399
 C       -5.567875197    14.141745778     1.377529681
 H       -0.152902232    -1.935674629    -1.515214718
 C       -2.153920859    -1.091766601    -1.575181207
 C       -0.186556030    -0.226579616    -2.856298419
 H       -1.775933805    -0.922536052     1.440753473
 C       -0.179141597    -2.378012962     1.625795765
 C       -0.294836886    -0.193690881     2.849079406
 H       13.186984573     7.147465825   -17.802993823
 H       11.586295042     7.089212547   -18.524905226
 H       11.838162181     8.022980291   -17.055804934
 H       11.376399380    10.529159217   -19.919801488
 H       10.744981123    10.051599708   -18.329955566
 H       10.575962458     8.979570433   -19.712265229
 H       14.789050395    13.041243742   -17.678309054
 H       15.102653002    13.586932925   -19.320238754
 H       16.113340549    12.330511603   -18.617817671
 H       13.872800734    10.604561726   -21.204702631
 H       15.562994800    10.854849805   -20.729984110
 H       14.596474665    12.202283195   -21.312310582
 H       12.856915917    13.640782858    -4.274358999
 H       13.559791423    15.211875917    -4.624233067
 H       13.443539127    14.017121256    -5.907319945
 H       10.818952413    16.706741305    -6.656323483
 H       12.255143017    15.896787666    -7.301411387
 H       12.389921868    16.959155884    -5.906105681
 H       10.349762189    13.438509748    -2.992148288
 H        9.732466955    11.803931297    -2.803552997
 H        8.691204218    13.048036033    -3.482676055
 H        9.678048655    10.743694116    -6.384543552
 H        8.293659336    11.381558164    -5.477987713
 H        9.410999754    10.256991374    -4.716705191
 H       -3.591918182    12.922188759    -3.335762494
 H       -5.187600240    12.544067184    -3.972217294
 H       -4.221566000    11.270212701    -3.239013471
 H       -7.045220297    12.043589928    -0.780984612
 H       -6.249775137    10.724743906    -1.664839698
 H       -7.106840350    11.987231747    -2.535273142
 H       -3.652610852    11.473492706     2.567208334
 H       -4.715418266    12.565720421     3.443128443
 H       -3.278310739    13.205090608     2.656736889
 H       -6.261401070    14.367073491     0.557280412
 H       -4.812165104    14.940102564     1.402837290
 H       -6.148255652    14.238597050     2.306173948
 H       -2.539789156    -1.663567611    -0.721793222
 H       -2.451380199    -1.648167357    -2.475966349
 H       -2.696043500    -0.136149162    -1.613534015
 H        0.902399356    -0.131971012    -2.955218635
 H       -0.621130851     0.775937586    -2.979495349
 H       -0.523065059    -0.815447464    -3.721654149
 H       -0.459461906    -2.979455951     0.751440505
 H       -0.639500346    -2.868499508     2.495832584
 H        0.906638030    -2.470243236     1.761204805
 H       -0.648631468     0.846739083     2.882278801
 H        0.784138755    -0.182101798     3.053046864
 H       -0.764954870    -0.705354788     3.700917426

