187   

Si        0.000000000     0.000000000     0.000000000
 C        1.865536444     0.000000000     0.000000000
 C       -0.679075497     1.710900214     0.000000000
 C        0.150017119     2.819734615     0.195732092
 C       -0.378931775     4.110439679     0.193163833
 C       -1.746828224     4.321764297     0.002776880
 C       -2.576822395     3.209278406    -0.191030099
 C       -2.051299012     1.920326448    -0.194094209
 C       -2.344291582     5.652946043    -0.007570632
 C       -1.662915449     6.798961685     0.160802416
 C       -2.260449186     8.130125820     0.150443435
 C       -3.629246414     8.339803895    -0.040173836
 C       -4.158481207     9.629452228    -0.042846586
 C       -3.329909952    10.738670721     0.160370781
 C       -1.958333828    10.531664187     0.352004373
 C       -1.430747627     9.242983898     0.340053068
Si       -4.022756761    12.440654705     0.157739776
 C       -3.038889060    13.632304448     1.131942870
 C       -2.307092362    13.322194596     2.210575115
 C       -1.526285106    14.296292747     2.975311115
 C       -0.795753657    13.859248759     4.089796197
 C       -0.042024194    14.743959143     4.844465482
 C       -0.044861866    16.122251279     4.542913958
 C       -0.784972097    16.562380813     3.430098856
 C       -1.493056462    15.655116161     2.652301019
 N        0.730011427    17.009126730     5.323651091
 C        0.761917042    16.725332510     6.777394548
 C        0.551381944    18.441249829     5.021023338
 C       -0.636584673    16.521662378     7.391761085
 C       -0.770054010    17.082693594     8.818953181
 N       -0.525694626    18.536295409     8.960479828
 C       -0.999296230    19.363115643     7.928646912
 C       -2.288542833    19.113058007     7.405224525
 C       -2.793955470    19.902472947     6.389021743
 C       -2.076026197    21.007773895     5.905093643
 C       -0.820535027    21.278620032     6.450650224
 C       -0.284308500    20.476328128     7.452379820
 C        0.789970240    18.834677053     9.547142178
 C       -2.670001402    21.798981829     4.829010215
 C       -2.105971866    22.876971875     4.267362271
Si       -2.930569333    23.804184001     2.921660174
 C       -3.974816750    22.632105848     1.958246236
 C       -3.427977532    21.385595384     1.623856411
 C       -4.169572926    20.458198204     0.896817392
 C       -5.472657207    20.753469324     0.483596082
 C       -6.016211579    22.000078730     0.816566997
 C       -5.276439889    22.930615453     1.545123063
 C       -6.280752511    19.807791026    -0.279505309
 C       -5.864518082    18.586339878    -0.654425864
 C       -6.658248275    17.629241306    -1.416651630
 C       -7.961975348    17.893406824    -1.843261850
 C       -8.680288932    16.943873813    -2.570540116
 C       -8.104535131    15.711304499    -2.893278783
 C       -6.793609676    15.448840703    -2.474386211
 C       -6.078465371    16.397928828    -1.750504772
Si       -9.026121547    14.438275606    -3.851257310
 C      -10.845938918    14.830005137    -3.947653729
 C       -8.313835533    14.343003545    -5.613887883
 C       -8.749401031    12.751903561    -3.010328912
 C       -3.983129106    25.201825566     3.664659479
 C       -1.612534810    24.567824350     1.785225560
 C       -4.048155640    13.042142642    -1.648767186
 C       -5.809198008    12.451501443     0.814072255
 C       -0.660818824    -0.896260037    -1.543686116
 C       -0.602524731    -0.930439921     1.547765273
 H        1.227456753     2.717625370     0.352081215
 H        0.288703202     4.956882970     0.343794774
 H       -3.645136223     3.351725035    -0.342135585
 H       -2.747112131     1.091902134    -0.354494880
 H       -3.426361871     5.667229584    -0.167069370
 H       -0.580656570     6.784704342     0.320296121
 H       -4.295381047     7.492551423    -0.190718149
 H       -5.235476490     9.731140942    -0.203733300
 H       -1.262691990    11.363050484     0.509489248
 H       -0.361171352     9.101959083     0.485026502
 H       -3.102126102    14.670848617     0.769334714
 H       -2.233261903    12.300089440     2.606628148
 H       -0.804557698    12.802508215     4.359133794
 H        0.551604064    14.369061394     5.673037132
 H       -0.815019481    17.614224121     3.159853725
 H       -2.046550756    16.022422619     1.786535727
 H        1.156323304    19.063666635     5.699922652
 H       -0.494824692    18.786528314     5.112536223
 H        0.912274117    18.639593778     3.996114057
 H        0.827610970    18.387361856    10.558522333
 H        0.916619340    19.921861109     9.686170618
 H        1.641964782    18.442740109     8.967378356
 H       -2.888215479    18.299919393     7.807029034
 H       -3.777791617    19.674295357     5.973971351
 H       -0.245695697    22.133969263     6.093214848
 H        0.698151436    20.714547953     7.845988606
 H       -3.648324548    21.408556088     4.506039652
 H       -1.135160462    23.266096832     4.600076886
 H       -2.414747078    21.095508062     1.925088853
 H       -3.723372183    19.494929473     0.654177641
 H       -7.028494989    22.249362237     0.504604745
 H       -5.751669883    23.888092863     1.773483804
 H       -7.281610860    20.162182749    -0.539907431
 H       -4.861241421    18.236416009    -0.389238603
 H       -8.431894198    18.845717184    -1.605536846
 H       -9.698484607    17.204266161    -2.871632418
 H       -6.292752873    14.502194418    -2.706236358
 H       -5.056821888    16.181778470    -1.439710259
 H        1.391195409    15.819851188     6.930230328
 H        1.303446515    17.555893944     7.278456911
 H       -1.400854752    16.976483429     6.728081198
 H       -0.890877016    15.443896827     7.402231525
 H       -1.807209457    16.894924915     9.189972685
 H       -0.094282132    16.528645417     9.505819386
 H        2.263222185    -1.030141969    -0.031427860
 H        2.274089469     0.486784128     0.902953214
 H        2.262564108     0.535283345    -0.881572834
 H      -11.396147191    14.039590747    -4.488775857
 H      -11.032411863    15.782958207    -4.473142750
 H      -11.288707531    14.909589104    -2.938142005
 H       -8.952768787    13.590282854    -6.160080335
 C       -8.412792696    15.684867683    -6.362143770
 C       -6.854528749    13.855515897    -5.667035451
 H       -7.639071827    12.553385181    -3.082785896
 C       -9.127796736    12.758406487    -1.518997314
 C       -9.479226805    11.591610570    -3.708905830
 H       -4.508832227    25.691020790     2.794108993
 C       -5.052800664    24.676592268     4.639281166
 C       -3.147562789    26.279083000     4.379623561
 H       -1.013820601    25.270775033     2.434047825
 C       -0.647582603    23.516840361     1.207134024
 C       -2.215980337    25.381474733     0.627034793
 H       -4.559703817    14.047519221    -1.631303505
 C       -2.634049028    13.239053506    -2.222490924
 C       -4.838763087    12.109992761    -2.582488618
 H       -6.425583247    11.873407508     0.066515864
 C       -5.933044000    11.752527257     2.179761621
 C       -6.402250754    13.867089351     0.926040775
 H       -1.785644440    -0.886524056    -1.447895622
 C       -0.294180444    -0.168424801    -2.849735813
 C       -0.208408861    -2.363873084    -1.643132814
 H       -0.088493654    -1.934581776     1.516127985
 C       -0.193830334    -0.225794017     2.854497471
 C       -2.121703964    -1.175386390     1.575235347
 H       -9.438931667    16.066079068    -6.442062787
 H       -8.047892145    15.569870161    -7.392957520
 H       -7.799148159    16.474738084    -5.905318634
 H       -6.713700369    12.855330368    -5.237623513
 H       -6.156404622    14.542294462    -5.167787267
 H       -6.520168644    13.788347373    -6.712811064
 H       -8.581379912    13.516012215    -0.937354193
 H       -8.884597260    11.787697796    -1.063173110
 H      -10.199723311    12.920095099    -1.347212749
 H       -9.207862450    11.479429399    -4.766533710
 H      -10.572379565    11.677637940    -3.653058481
 H       -9.221592160    10.638806208    -3.223513977
 H       -5.727757385    23.933568805     4.193157371
 H       -5.689426144    25.503765525     4.983339664
 H       -4.619227500    24.224134117     5.543420065
 H       -2.418273499    26.771565072     3.723939761
 H       -2.605898103    25.890558636     5.253196880
 H       -3.805827269    27.075206581     4.756947120
 H       -0.143267833    22.916124142     1.976086242
 H        0.147507316    24.012506971     0.632006698
 H       -1.140710943    22.823162896     0.511094835
 H       -2.851166163    26.211813423     0.961445637
 H       -2.808569994    24.766250506    -0.065197360
 H       -1.413556299    25.831953267     0.024950916
 H       -2.020839772    13.942584559    -1.643138983
 H       -2.693269593    13.646913248    -3.241653595
 H       -2.069226806    12.299426381    -2.301309475
 H       -5.877170582    11.946740961    -2.263649585
 H       -4.369996638    11.121305682    -2.692323598
 H       -4.884796264    12.539098413    -3.594227765
 H       -5.580173388    10.712343083     2.174554075
 H       -6.986191429    11.718962084     2.492556960
 H       -5.391968026    12.279145461     2.979156437
 H       -6.432303259    14.408632976    -0.030146379
 H       -5.870146275    14.500383062     1.649856979
 H       -7.442869433    13.813707147     1.276911564
 H       -0.637737117     0.875704688    -2.875408788
 H       -0.768751263    -0.668335264    -3.706090293
 H        0.785012450    -0.166672196    -3.052167946
 H       -0.500547173    -2.968914530    -0.775146571
 H        0.876611869    -2.469586194    -1.774700173
 H       -0.671391545    -2.840540800    -2.519437010
 H        0.890221891    -0.086234584     2.954984289
 H       -0.507690746    -0.826181669     3.720381449
 H       -0.668132831     0.758917244     2.974840213
 H       -2.489504408    -1.735592057     0.706398904
 H       -2.702140208    -0.245044740     1.648576562
 H       -2.389164877    -1.772197386     2.459540791

