187   

Si        0.000000000     0.000000000     0.000000000
 C        1.863745696     0.000000000     0.000000000
 C       -0.667875266     1.715273153     0.000000000
 C       -0.012786017     2.738672032    -0.694807348
 C       -0.521041523     4.038050070    -0.693279225
 C       -1.707476919     4.335937155    -0.018935139
 C       -2.365217761     3.308677841     0.670460520
 C       -1.850450287     2.016174259     0.685714917
 C       -2.293463647     5.668773792     0.023354700
 C       -1.799983679     6.775107278    -0.558820135
 C       -2.452741806     8.078818034    -0.467325078
 C       -3.646203212     8.245502861     0.243619879
 C       -4.257987251     9.491178957     0.323535188
 C       -3.678031999    10.613534004    -0.286435098
 C       -2.480182134    10.454782709    -0.986928971
 C       -1.875675724     9.199127833    -1.074970193
Si       -4.581442876    12.198796230    -0.109464660
 C       -4.217809652    13.566496311    -1.261747636
 C       -3.809397452    13.478756429    -2.533742791
 C       -3.546431883    14.655501637    -3.369593413
 C       -3.120552393    14.472076202    -4.694734338
 C       -2.860847853    15.555576592    -5.519145129
 C       -3.111858150    16.857491643    -5.054460509
 C       -3.559051551    17.052338560    -3.743756419
 C       -3.752896921    15.957252828    -2.907543319
 N       -2.817367671    17.925274416    -5.966555604
 C       -3.950287814    18.120251588    -6.910220226
 C       -2.390568760    19.180579829    -5.322870743
 C       -5.260173396    18.611380777    -6.256501827
 C       -6.499734341    18.352914354    -7.139926331
 N       -7.426949587    17.300097354    -6.655512523
 C       -6.813224070    16.006796869    -6.671103054
 C       -6.714536295    15.371600233    -7.920922532
 C       -6.132127780    14.116470388    -8.016948742
 C       -5.625401516    13.470602005    -6.879935908
 C       -5.765641009    14.096569514    -5.638930950
 C       -6.391616336    15.332183870    -5.520772352
 C       -8.078664279    17.657559651    -5.382708704
 C       -5.016926877    12.144810693    -7.019892412
 C       -4.505350473    11.446945522    -5.997332095
Si       -3.735087116     9.794153812    -6.104694411
 C       -4.374337538     8.574980400    -4.894260559
 C       -5.496319512     8.785596413    -4.088684468
 C       -5.914850127     7.801468193    -3.191867613
 C       -5.207151761     6.601323815    -3.062716066
 C       -4.077377323     6.400714379    -3.863436925
 C       -3.665410074     7.372272840    -4.768668695
 C       -5.658523522     5.581360758    -2.119306522
 C       -5.029294884     4.404422714    -1.961547662
 C       -5.410072767     3.336218389    -1.047934148
 C       -6.513374955     3.407852576    -0.195541032
 C       -6.822694253     2.345987241     0.656642498
 C       -6.038201891     1.189187735     0.665313036
 C       -4.937400902     1.111777254    -0.198547375
 C       -4.633234361     2.168877899    -1.048434817
Si       -6.400324875    -0.238872005     1.767203657
 C       -7.717681636     0.161777088     3.022621938
 C       -6.965050755    -1.728616827     0.726971601
 C       -4.760215291    -0.693653411     2.626138072
 C       -3.966115120     9.100353969    -7.863341763
 C       -1.872144191    10.045342402    -5.786962874
 C       -6.446578448    11.849114313    -0.320933731
 C       -4.268618872    12.867998193     1.646088512
 C       -0.626383563    -0.895304813    -1.560417312
 C       -0.674385058    -0.932912757     1.517743241
 H        0.912934599     2.561192243    -1.247671776
 H        0.011011927     4.820789313    -1.229529030
 H       -3.295692142     3.518699315     1.198525936
 H       -2.410825589     1.260088316     1.245520914
 H       -3.230554154     5.720871842     0.592108441
 H       -0.876143361     6.750133518    -1.138133226
 H       -4.118825859     7.392646923     0.729673834
 H       -5.198228760     9.545146872     0.881577551
 H       -1.985765883    11.297847883    -1.478100063
 H       -0.942322474     9.091850317    -1.624420911
 H       -4.394409720    14.554581294    -0.799756314
 H       -3.621882734    12.521515920    -3.036216883
 H       -2.946450465    13.463603697    -5.078081742
 H       -2.486992087    15.410196819    -6.531633552
 H       -3.745161789    18.053793880    -3.367787899
 H       -4.081263609    16.130483898    -1.882654476
 H       -2.004899940    19.855887513    -6.106527104
 H       -1.555473478    18.966629048    -4.633215423
 H       -3.177960742    19.708875224    -4.766206849
 H       -8.694588192    18.558267484    -5.549484273
 H       -7.389502061    17.858834218    -4.548554461
 H       -8.762458955    16.843285256    -5.084950693
 H       -7.104089617    15.871104376    -8.805635510
 H       -6.066934129    13.631006101    -8.989714840
 H       -5.444505220    13.584502491    -4.728199082
 H       -6.502356789    15.782098894    -4.537911066
 H       -5.019613816    11.776352845    -8.053106362
 H       -4.530372765    11.848650894    -4.968474470
 H       -6.077701734     9.710735626    -4.143393407
 H       -6.797556821     7.974990276    -2.579812051
 H       -3.501546735     5.479723053    -3.779131011
 H       -2.771309219     7.152886897    -5.360647069
 H       -6.549125128     5.833437193    -1.542257492
 H       -4.130974915     4.181219312    -2.551420669
 H       -7.138294273     4.298167714    -0.187474163
 H       -7.693889254     2.457625559     1.306349379
 H       -4.288368874     0.230820562    -0.236729247
 H       -3.771066500     2.093000359    -1.711234642
 H       -3.617100100    18.832467804    -7.694102374
 H       -4.125422248    17.143698279    -7.419483718
 H       -5.390202070    18.107197745    -5.277953924
 H       -5.181802734    19.687788483    -6.026593904
 H       -7.095023712    19.287942429    -7.239056010
 H       -6.192649093    18.075944586    -8.173154163
 H        2.264262127    -1.028015828     0.047850944
 H        2.258395141     0.551563213     0.873097932
 H        2.274199493     0.476064480    -0.907321983
 H       -7.897205225    -0.691825364     3.700230050
 H       -8.679068210     0.409671035     2.539280421
 H       -7.422929157     1.024111381     3.647628456
 H       -7.238905690    -2.530723153     1.471933058
 C       -8.214293182    -1.415131760    -0.116499006
 C       -5.874431700    -2.295024288    -0.200278261
 H       -4.035978132    -0.931260449     1.791912928
 C       -4.173906657     0.474035437     3.439719827
 C       -4.857044692    -1.935231282     3.529110083
 H       -3.642331798     9.925700640    -8.561825028
 C       -3.106051817     7.862573049    -8.171765934
 C       -5.438180774     8.764425426    -8.164311299
 H       -1.399740418     9.028040309    -5.904249740
 C       -1.209528187    10.998958820    -6.796175670
 C       -1.582251036    10.542761292    -4.361287204
 H       -6.729703679    11.134041298     0.502893935
 C       -7.321421509    13.106704972    -0.178181414
 C       -6.751841509    11.176038497    -1.670213740
 H       -4.885496458    13.807924101     1.736083033
 C       -4.708885996    11.903965228     2.760608708
 C       -2.791213453    13.241599060     1.862479351
 H       -0.150909081    -1.917733527    -1.535189507
 C       -2.154180793    -1.078257666    -1.596487918
 C       -0.185785081    -0.196243714    -2.859685617
 H       -1.800788644    -0.875527756     1.443153226
 C       -0.286833496    -2.422110953     1.547474828
 C       -0.256628791    -0.282165724     2.848804164
 H       -9.072593123    -1.080733306     0.480395301
 H       -8.545473780    -2.317439388    -0.650240767
 H       -8.028793737    -0.652802906    -0.887098542
 H       -4.968497704    -2.610075101     0.333004798
 H       -5.578269511    -1.589239415    -0.989349152
 H       -6.251244644    -3.189097426    -0.717962912
 H       -4.059323076     1.399572036     2.856866660
 H       -3.169409007     0.212060863     3.804127578
 H       -4.771096808     0.718298456     4.327735735
 H       -5.191514377    -2.835077375     2.997145676
 H       -5.524591872    -1.789933114     4.388471528
 H       -3.867923771    -2.174381423     3.946314970
 H       -2.031341484     8.028839571    -8.027190815
 H       -3.231574187     7.572879532    -9.225342958
 H       -3.395860890     6.983335391    -7.579452581
 H       -6.122821563     9.610620974    -8.014633601
 H       -5.815599128     7.927576663    -7.558701767
 H       -5.549394920     8.458757565    -9.213975431
 H       -1.287425834    10.655502885    -7.835264871
 H       -0.134773449    11.085609866    -6.582068705
 H       -1.614825290    12.020285769    -6.753185398
 H       -2.047459553     9.917848733    -3.583210560
 H       -1.904844850    11.579974970    -4.195259213
 H       -0.500710440    10.522781787    -4.167346555
 H       -7.201157881    13.616156960     0.785741059
 H       -8.384201513    12.833917033    -0.248599759
 H       -7.141105265    13.844249598    -0.973471938
 H       -6.198409035    10.235838465    -1.817647839
 H       -6.539715167    11.827234118    -2.530994305
 H       -7.818677380    10.920411748    -1.732219945
 H       -5.775852627    11.651199949     2.722538198
 H       -4.537958483    12.364351232     3.744687290
 H       -4.139359775    10.963129480     2.761907572
 H       -2.412987262    13.972611132     1.134839186
 H       -2.122137281    12.369224798     1.833463902
 H       -2.658114651    13.696752303     2.854187352
 H       -2.549806650    -1.624074274    -0.730246671
 H       -2.441436236    -1.661936398    -2.483100636
 H       -2.691257823    -0.121380201    -1.672777313
 H        0.903316867    -0.106914975    -2.959420445
 H       -0.615205953     0.810103140    -2.969934779
 H       -0.525303644    -0.773089100    -3.731823936
 H       -0.623473777    -2.977029638     0.662332752
 H       -0.752503315    -2.914020506     2.413797314
 H        0.794428321    -2.582249104     1.649989675
 H       -0.540394406     0.777379192     2.924462691
 H        0.823431406    -0.346690927     3.036347811
 H       -0.746173880    -0.794086550     3.689424981

