187   

Si        0.000000000     0.000000000     0.000000000
 C        1.865286090     0.000000000     0.000000000
 C       -0.676934116     1.711856364     0.000000000
 C        0.123564362     2.802806315    -0.353294968
 C       -0.398321645     4.096224905    -0.350307110
 C       -1.731116145     4.328311275    -0.000584674
 C       -2.533337113     3.233529386     0.348308014
 C       -2.015258299     1.941413173     0.347104876
 C       -2.319755065     5.663344460     0.016578282
 C       -1.662468671     6.793430138    -0.294524942
 C       -2.250713801     8.128615003    -0.277489850
 C       -3.584037153     8.360099167     0.072448695
 C       -4.105521588     9.652993022     0.075381844
 C       -3.308682882    10.742627431    -0.292827230
 C       -1.972969815    10.513241168    -0.646055766
 C       -1.449890992     9.222855331    -0.630226641
Si       -3.985915593    12.453118698    -0.292750902
 C       -3.138983176    13.549368679    -1.485047405
 C       -2.582602076    13.137806298    -2.632222595
 C       -1.906664299    14.026426084    -3.579390139
 C       -1.360884091    13.479876772    -4.750634904
 C       -0.711795693    14.279007560    -5.677604856
 C       -0.535927743    15.656562694    -5.430833479
 C       -1.075495348    16.204163795    -4.254941044
 C       -1.767295603    15.398564743    -3.357755100
 N        0.133846541    16.442399151    -6.403968914
 C        1.402022541    15.847205934    -6.899724025
 C        0.266584011    17.871963358    -6.064095552
 C        2.269907000    15.231265552    -5.784529007
 C        3.782018922    15.443267436    -5.979551529
 N        4.221527231    16.852739535    -6.084784189
 C        3.587956188    17.788199745    -5.253409276
 C        3.295965301    17.422671706    -3.918897700
 C        2.672094222    18.317997396    -3.069425632
 C        2.397357011    19.632477983    -3.477620234
 C        2.725843110    20.007328117    -4.781502876
 C        3.312055473    19.106010494    -5.662809455
 C        4.539203304    17.236204659    -7.469334113
 C        1.735552741    20.529463343    -2.531629546
 C        1.415174709    21.804808213    -2.788726334
Si        0.586307319    22.875457359    -1.559075057
 C       -0.471373164    21.839596887    -0.464194096
 C       -1.238350994    20.827682138    -1.057724179
 C       -2.057667386    20.011642214    -0.282094371
 C       -2.136192829    20.189945652     1.102837680
 C       -1.372010598    21.203787458     1.693341558
 C       -0.548548895    22.020781695     0.919810496
 C       -2.983392883    19.354613404     1.948189784
 C       -3.756881753    18.355455675     1.490965771
 C       -4.609754385    17.510006301     2.318468438
 C       -4.710975474    17.657514728     3.704657006
 C       -5.541541232    16.822744754     4.451101553
 C       -6.312023482    15.836262768     3.823463724
 C       -6.219330265    15.696786321     2.434625864
 C       -5.378534187    16.521559157     1.691615331
Si       -7.403939599    14.742113099     4.825287493
 C       -8.224757598    15.723600645     6.183140176
 C       -8.775422789    13.921004334     3.787976656
 C       -6.317354744    13.352325530     5.541602672
 C        1.897493500    23.809883159    -0.548149321
 C       -0.499511312    24.140495934    -2.472585186
 C       -5.843855919    12.410050102    -0.710795665
 C       -3.771552998    13.185118612     1.450192221
 C       -0.619030392    -0.918352041    -1.547945543
 C       -0.653732788    -0.908261637     1.540218678
 H        1.173422599     2.684327440    -0.635173524
 H        0.246788008     4.928538557    -0.625771627
 H       -3.574316232     3.392097556     0.623454729
 H       -2.689128654     1.127222097     0.628051945
 H       -3.373107752     5.695015484     0.309785363
 H       -0.608957164     6.761676690    -0.587655125
 H       -4.227412783     7.527880766     0.351093154
 H       -5.151269234     9.772692003     0.372189489
 H       -1.301403908    11.328966001    -0.934965356
 H       -0.407480190     9.065269418    -0.900528694
 H       -3.127341291    14.612618640    -1.196538010
 H       -2.588211997    12.086980260    -2.953330128
 H       -1.463098090    12.411893363    -4.945381115
 H       -0.337358907    13.842994059    -6.599690951
 H       -0.961513199    17.260483730    -4.025933706
 H       -2.187741754    15.851292164    -2.458264644
 H        0.822643530    18.410131762    -6.847558589
 H        0.792921676    18.057348745    -5.109871238
 H       -0.741306673    18.321213223    -6.015762174
 H        5.393562957    16.619789579    -7.809222156
 H        4.876665104    18.284712578    -7.522268704
 H        3.708126408    17.086999701    -8.178709726
 H        3.565774264    16.434355850    -3.554975784
 H        2.416782985    18.002875406    -2.055614287
 H        2.522608422    21.023447166    -5.122497660
 H        3.538670418    19.432051903    -6.672409887
 H        1.509735001    20.044466007    -1.569290769
 H        1.655052015    22.279805822    -3.749601564
 H       -1.215619725    20.638320657    -2.137252039
 H       -2.639394430    19.229358974    -0.767360400
 H       -1.418617058    21.358978678     2.769424849
 H        0.023733903    22.796442026     1.435258545
 H       -2.953342694    19.597061165     3.013632343
 H       -3.782133434    18.118324135     0.422051905
 H       -4.132414627    18.424977760     4.215076905
 H       -5.570823524    16.979760589     5.533182806
 H       -6.802654486    14.945103708     1.891776872
 H       -5.321255581    16.398107779     0.610647518
 H        1.127763621    15.071585976    -7.649766930
 H        1.958960153    16.627186861    -7.459045965
 H        1.953041697    15.639275581    -4.802003612
 H        2.066493296    14.145353226    -5.707099342
 H        4.328243696    15.000004007    -5.111320058
 H        4.127428296    14.883663693    -6.875809084
 H        2.263126159    -1.028992917     0.056658199
 H        2.260561519     0.557059193     0.868984289
 H        2.275569708     0.465099378    -0.913324043
 H       -8.919461251    15.096244243     6.768880030
 H       -8.803735230    16.569573127     5.770830195
 H       -7.481400745    16.139334637     6.886179816
 H       -9.464917680    13.448639128     4.548719454
 C       -9.600325720    14.936868449     2.977059011
 C       -8.294220200    12.802416163     2.845873067
 H       -5.979532719    12.745765023     4.649694606
 C       -5.058610411    13.872504193     6.257361271
 C       -7.080906537    12.412038166     6.490494632
 H        1.328221540    24.418350937     0.212791899
 C        2.843168941    22.858113949     0.206669027
 C        2.741557890    24.779298508    -1.395081774
 H        0.203061991    24.743265115    -3.117893747
 C       -1.536425631    23.472583092    -3.393643205
 C       -1.225987728    25.108158353    -1.522149885
 H       -6.350630008    11.911306891     0.164655664
 C       -6.463415458    13.807100386    -0.890915413
 C       -6.139968226    11.580490232    -1.973552588
 H       -4.404327802    14.120491546     1.482642323
 C       -4.261688831    12.238114461     2.558620337
 C       -2.318495487    13.592653039     1.751030451
 H       -0.132741927    -1.935906084    -1.515131141
 C       -2.144870536    -1.119486907    -1.572515593
 C       -0.191612682    -0.226768279    -2.855521970
 H       -1.778376964    -0.913298449     1.442711143
 C       -0.183766804    -2.370700170     1.636215358
 C       -0.298004589    -0.180077867     2.849076715
 H      -10.057757901    15.719196345     3.597460138
 H      -10.430657833    14.427929800     2.467034523
 H       -9.018067173    15.439995552     2.192909004
 H       -7.791230175    11.980767431     3.372512616
 H       -7.616945308    13.156683675     2.056319585
 H       -9.154850901    12.352733730     2.329566339
 H       -4.421749216    14.496679150     5.614075122
 H       -4.432907192    13.027476158     6.579682140
 H       -5.286091795    14.449942723     7.162704981
 H       -7.959402636    11.944027358     6.028028981
 H       -7.413892220    12.910543625     7.410490867
 H       -6.426101879    11.587163005     6.808130497
 H        2.322091253    22.160417943     0.876352391
 H        3.533696547    23.434233484     0.838520915
 H        3.470692361    22.257698648    -0.468455370
 H        2.145177238    25.549457558    -1.900494876
 H        3.344672342    24.266986038    -2.157554228
 H        3.453513305    25.317007758    -0.752041959
 H       -1.091150961    22.794069297    -4.133850609
 H       -2.080545337    24.238132964    -3.964946467
 H       -2.298346069    22.907095966    -2.838067309
 H       -0.545011485    25.691455318    -0.889081734
 H       -1.943762938    24.601063165    -0.861453839
 H       -1.808092328    25.839145296    -2.101870862
 H       -6.335107247    14.459507079    -0.018465535
 H       -7.546956957    13.719734739    -1.054573705
 H       -6.063306131    14.338132500    -1.766735844
 H       -5.782975621    10.543327124    -1.913269391
 H       -5.709758375    12.021154478    -2.884569971
 H       -7.224246528    11.522425822    -2.142468422
 H       -5.327318162    11.988466892     2.478680512
 H       -4.125483913    12.716441037     3.541332618
 H       -3.698882155    11.294863815     2.599927286
 H       -1.907310715    14.312969822     1.030982036
 H       -1.632681161    12.735712842     1.793923265
 H       -2.264422657    14.082762574     2.734552623
 H       -2.523023221    -1.690631538    -0.715250762
 H       -2.434340189    -1.686273847    -2.469444100
 H       -2.699787723    -0.171682385    -1.618088539
 H        0.895707289    -0.116035035    -2.955699086
 H       -0.640654322     0.769457617    -2.977895872
 H       -0.520555705    -0.820327523    -3.720543913
 H       -0.462909261    -2.975472962     0.763799382
 H       -0.646518266    -2.856922927     2.507388050
 H        0.901616600    -2.463586407     1.774262803
 H       -0.652957609     0.860154693     2.877157129
 H        0.780830196    -0.166551881     3.053369230
 H       -0.768166571    -0.688065578     3.703096271

