187   

Si        0.000000000     0.000000000     0.000000000
 C        1.865480049     0.000000000     0.000000000
 C       -0.676909507     1.711684771     0.000000000
 C        0.133617798     2.806829758     0.315318359
 C       -0.388755447     4.100030225     0.312539670
 C       -1.731983671     4.327793614     0.001998305
 C       -2.543669082     3.228680896    -0.309464366
 C       -2.024787470     1.936919141    -0.310012493
 C       -2.320792243     5.662753048    -0.013152811
 C       -1.653067340     6.795882904     0.263294733
 C       -2.239448976     8.131951194     0.248853616
 C       -3.583258809     8.361716685    -0.061635771
 C       -4.101834331     9.655377776    -0.063428273
 C       -3.281974370    10.749671125     0.236643875
 C       -1.936157766    10.523238858     0.547457547
 C       -1.423683257     9.228089758     0.557179844
Si       -3.971433892    12.455048398     0.232880474
 C       -2.626888855    13.690880945     0.203857510
 C       -2.478690434    14.751987430     1.008591761
 C       -1.358121843    15.690562865     0.904570098
 C       -1.274144702    16.777357128     1.784694240
 C       -0.225008061    17.683457615     1.711199929
 C        0.809368687    17.506787038     0.771308129
 C        0.726076827    16.412080234    -0.114508559
 C       -0.349424488    15.539471410    -0.053116539
 N        1.888747461    18.397469205     0.662022397
 C        2.067355770    19.453070133     1.664512930
 C        3.155951122    17.845122779     0.154778633
 C        2.665451043    18.964640563     2.994982996
 C        2.978511231    20.132330545     3.947864750
 N        1.815622547    20.941427731     4.376708287
 C        0.651947749    20.185838487     4.661461632
 C        0.764141503    19.152494552     5.614795009
 C       -0.338628897    18.380205071     5.934514743
 C       -1.587045898    18.623635454     5.340565652
 C       -1.698146649    19.662586018     4.415060911
 C       -0.598159675    20.446835179     4.081657862
 C        1.624460301    22.164289108     3.580531837
 C       -2.716394201    17.773325374     5.718797545
 C       -3.954117035    17.903303696     5.225179425
Si       -5.381799240    16.855819163     5.679853240
 C       -6.195324502    16.251596419     4.144340400
 C       -5.663057263    16.556129109     2.885587050
 C       -6.284086220    16.095460080     1.727929841
 C       -7.454252530    15.328417737     1.799439782
 C       -7.984670353    15.027611240     3.057128448
 C       -7.361452134    15.482014860     4.218269177
 C       -8.066903728    14.869548397     0.558895760
 C       -9.181727822    14.124499767     0.475451181
 C       -9.776312237    13.677050482    -0.779551851
 C       -9.226106079    13.991523006    -2.025093629
 C       -9.824152516    13.544980233    -3.202522513
 C      -10.990370649    12.774238010    -3.159022912
 C      -11.543025150    12.455349667    -1.911461001
 C      -10.940367292    12.898853678    -0.737227772
Si      -11.786933091    12.180274710    -4.708456655
 C      -11.200553727    13.145294225    -6.192971780
 C      -11.355065292    10.342769705    -4.954947644
 C      -13.674526973    12.339876739    -4.525356453
 C       -4.806340991    15.395135434     6.753091871
 C       -6.638554868    17.889380814     6.661992543
 C       -5.007607239    12.716581936    -1.348450715
 C       -5.086666160    12.668320758     1.754063087
 C       -0.654516496    -0.904153084    -1.542293366
 C       -0.616263422    -0.922703611     1.546463094
 H        1.191474170     2.691784272     0.567051839
 H        0.264306653     4.935695466     0.557530726
 H       -3.592680201     3.383868496    -0.554174571
 H       -2.705972167     1.119478842    -0.562077510
 H       -3.382780014     5.691802050    -0.273212291
 H       -0.590902594     6.765992941     0.523718133
 H       -4.237869358     7.526633395    -0.302904299
 H       -5.161617481     9.774754506    -0.308518628
 H       -1.252895095    11.342069644     0.794734731
 H       -0.376163980     9.069782034     0.805638379
 H       -1.897258831    13.489142291    -0.599725446
 H       -3.182138812    14.994654374     1.815885059
 H       -2.043678722    16.920682872     2.546645665
 H       -0.202973432    18.516284090     2.410710084
 H        1.492046788    16.252458800    -0.866083964
 H       -0.393956391    14.712010911    -0.763515189
 H        3.976603249    18.569408297     0.279062855
 H        3.056288019    17.654461386    -0.930088426
 H        3.445003288    16.905221861     0.653966538
 H        2.556022755    22.756466585     3.608277080
 H        0.840639117    22.785618561     4.050774169
 H        1.352900459    21.990165301     2.528231449
 H        1.720181155    18.968018371     6.098512270
 H       -0.234085979    17.575223953     6.662501310
 H       -2.658251635    19.871471299     3.940504827
 H       -0.719908842    21.244738498     3.355600736
 H       -2.445975584    17.002834831     6.453573505
 H       -4.197604909    18.696760191     4.499744207
 H       -4.749180818    17.147594454     2.766956943
 H       -5.852429928    16.339872731     0.757791542
 H       -8.892151831    14.433163467     3.139161761
 H       -7.823311057    15.217080090     5.173321484
 H       -7.547480479    15.188543305    -0.351614801
 H       -9.712434389    13.806408555     1.376521739
 H       -8.318481482    14.590382747    -2.086722915
 H       -9.348094992    13.823707152    -4.146817926
 H      -12.452428880    11.855655692    -1.816730333
 H      -11.383417605    12.639101108     0.222180936
 H        2.720476116    20.236635572     1.214280050
 H        1.080723422    19.943134778     1.841158095
 H        1.968295812    18.247831010     3.475503633
 H        3.590293213    18.387729430     2.809611268
 H        3.444920173    19.728226952     4.878773556
 H        3.738660974    20.802794477     3.492219140
 H        2.263246046    -1.029580376    -0.044208657
 H        2.275469005     0.476035687     0.907872358
 H        2.260787986     0.546462785    -0.875559997
 H      -11.718662350    12.816563199    -7.111573172
 H      -10.116382055    13.021499258    -6.360844481
 H      -11.401257970    14.224894105    -6.067131695
 H      -11.816256973    10.048397938    -5.941523782
 C       -9.837020371    10.101521528    -5.045578845
 C      -11.936163154     9.425480057    -3.864041147
 H      -13.957219898    11.689097449    -3.647279921
 C      -14.116187371    13.779639392    -4.206187324
 C      -14.454371146    11.836535514    -5.753064991
 H       -4.249530443    15.859482193     7.618854587
 C       -5.955228030    14.551340050     7.332719317
 C       -3.839499409    14.459425808     6.006021782
 H       -7.485651440    17.186723680     6.912400011
 C       -6.068963454    18.440808655     7.980428031
 C       -7.217942632    19.053460816     5.838595707
 H       -6.009932351    12.239328662    -1.147946159
 C       -5.235482606    14.204949657    -1.667171710
 C       -4.401558999    12.038602513    -2.590301238
 H       -5.332249958    13.770738130     1.810738378
 C       -6.415399576    11.897380619     1.671756724
 C       -4.365729553    12.273863727     3.055616091
 H       -1.779110066    -0.908918792    -1.444271331
 C       -0.299509316    -0.172444288    -2.849330481
 C       -0.184907435    -2.366448146    -1.642387296
 H       -0.127347522    -1.938944853     1.510816005
 C       -0.188922166    -0.233016026     2.855092444
 C       -2.141448262    -1.128499103     1.572884515
 H       -9.354937735    10.656999767    -5.860383539
 H       -9.635833064     9.037987177    -5.238981695
 H       -9.308239957    10.349712420    -4.113822132
 H      -13.030742221     9.466808673    -3.797673292
 H      -11.529125564     9.638612951    -2.865465478
 H      -11.682083872     8.377463150    -4.080232420
 H      -13.638621325    14.190815386    -3.305293277
 H      -15.199315257    13.809592239    -4.020417506
 H      -13.924750228    14.479807448    -5.030235728
 H      -14.245309196    10.787830811    -6.000963302
 H      -14.269373757    12.436494186    -6.653969108
 H      -15.535632402    11.896884986    -5.561163136
 H       -6.672130070    15.133479292     7.925055291
 H       -5.551020559    13.785108064     8.010826178
 H       -6.516736429    14.006638950     6.561258765
 H       -2.956870554    14.968764245     5.594746790
 H       -4.325082755    13.927787567     5.173920313
 H       -3.459641043    13.685377576     6.687269282
 H       -5.714114032    17.657927249     8.663088889
 H       -6.848348448    18.992877100     8.525366266
 H       -5.242032090    19.148797389     7.826956952
 H       -7.685845502    18.730758379     4.897821470
 H       -6.469820618    19.819460614     5.593327113
 H       -8.005511376    19.564007012     6.411363374
 H       -5.667991154    14.767987217    -0.829762767
 H       -5.930877556    14.306479123    -2.511744225
 H       -4.310485167    14.720907299    -1.962741766
 H       -4.255715548    10.956337457    -2.469329096
 H       -3.435172940    12.467812540    -2.885628755
 H       -5.073012513    12.163335392    -3.451670735
 H       -7.047155892    12.209983998     0.828556740
 H       -7.011968756    12.088179460     2.576328996
 H       -6.282282832    10.809686957     1.613769163
 H       -3.447394764    12.850266978     3.235128750
 H       -4.101237884    11.207732745     3.094272286
 H       -5.025837700    12.456545608     3.916495071
 H       -0.655509177     0.867570964    -2.874426054
 H       -0.769405861    -0.678344847    -3.704648999
 H        0.779226332    -0.157362629    -3.053708704
 H       -0.467100850    -2.974251053    -0.773059714
 H        0.900821035    -2.459362807    -1.777374837
 H       -0.645076576    -2.849090013    -2.516850600
 H        0.898333569    -0.121091209     2.954727009
 H       -0.516787505    -0.828430570     3.719204881
 H       -0.638852405     0.762646438     2.979354228
 H       -2.519872837    -1.694429682     0.712374318
 H       -2.698726305    -0.182505299     1.626530013
 H       -2.427287173    -1.702459621     2.466387190

