187   

Si        0.000000000     0.000000000     0.000000000
 C        1.865882212     0.000000000     0.000000000
 C       -0.637301407     1.727294994     0.000000000
 C       -0.056102550     2.676077220    -0.850353702
 C       -0.520138200     3.990588123    -0.869497521
 C       -1.593729707     4.380784068    -0.063970613
 C       -2.181805877     3.426716938     0.776803657
 C       -1.709168818     2.117178956     0.811434754
 C       -2.115744911     5.742395722    -0.047955312
 C       -1.642247541     6.761484832    -0.785068877
 C       -2.181513815     8.117299637    -0.752241821
 C       -3.257026224     8.469521891     0.067122954
 C       -3.747392262     9.773632798     0.074136578
 C       -3.132114016    10.772501718    -0.689168801
 C       -2.039819739    10.428301775    -1.494486810
 C       -1.579209623     9.113828042    -1.530485810
Si       -3.797952629    12.486201515    -0.663303943
 C       -2.538708656    13.793155440    -0.441037311
 C       -2.430462421    14.879353987    -1.218100171
 C       -1.427675208    15.931400568    -1.050310687
 C       -1.433079227    17.014326719    -1.941193150
 C       -0.509857701    18.041553405    -1.834669462
 C        0.493115096    17.999902074    -0.840905930
 C        0.503270247    16.906702596     0.052138379
 C       -0.451013091    15.903951190    -0.051121952
 N        1.428410587    19.028190225    -0.723604562
 C        1.612663251    19.982916605    -1.823025182
 C        2.606368468    18.800800086     0.122472478
 C        2.115208822    19.375924757    -3.144226870
 C        3.613006638    19.027396339    -3.084100366
 N        4.061037600    18.096689758    -4.130422348
 C        3.631327528    16.753824607    -4.046531124
 C        2.884047664    16.264379615    -2.959634514
 C        2.483769900    14.936556904    -2.920710615
 C        2.862303512    14.039004081    -3.926480994
 C        3.632048448    14.519259773    -4.991131616
 C        4.015640478    15.850569751    -5.057228924
 C        4.023757673    18.688231331    -5.481169748
 C        2.413848804    12.648571966    -3.839129651
 C        2.716730757    11.709138147    -4.743459792
Si        2.215086841     9.950738998    -4.737122516
 C        1.964703632     9.197760075    -3.074844104
 C        1.796408783     9.959090935    -1.913180312
 C        1.609885029     9.343674968    -0.676767862
 C        1.617006118     7.949046564    -0.562993603
 C        1.791338148     7.187286307    -1.723141907
 C        1.954002357     7.801569923    -2.962261858
 C        1.418517959     7.338917334     0.747646296
 C        1.386214986     6.011769233     0.952417194
 C        1.191518993     5.354033688     2.237605316
 C        1.011711866     6.052153688     3.433581133
 C        0.829700172     5.366075297     4.634545657
 C        0.834549137     3.967305392     4.662906776
 C        1.016106651     3.266925487     3.464020506
 C        1.188417269     3.953416349     2.267077044
Si        0.594808447     3.059001443     6.244980318
 C        1.285976592     4.008770623     7.692175310
 C       -1.278135698     2.798082278     6.478671325
 C        1.415243254     1.345171263     6.121720959
 C        0.577743627     9.778060003    -5.695427719
 C        3.593703737     9.040797086    -5.692393571
 C       -4.732552761    12.732909697    -2.307646657
 C       -5.048166300    12.693690983     0.761555560
 C       -0.642489092    -0.888457045    -1.555277754
 C       -0.643172001    -0.945431931     1.523247260
 H        0.776566676     2.427105956    -1.514162586
 H       -0.055205021     4.710795767    -1.540714563
 H       -3.013212817     3.711710867     1.418716516
 H       -2.206739458     1.420494688     1.491211477
 H       -2.954499840     5.897341037     0.637417294
 H       -0.796174252     6.620210796    -1.465180836
 H       -3.733092845     7.720729968     0.697406658
 H       -4.611963388     9.974154001     0.712801986
 H       -1.512369146    11.171966269    -2.101008821
 H       -0.724351978     8.859210535    -2.160198216
 H       -1.859068165    13.627261736     0.408950291
 H       -3.100104628    15.066085973    -2.069458921
 H       -2.182622979    17.057096035    -2.732756765
 H       -0.568224075    18.875303491    -2.526243168
 H        1.250168426    16.838708051     0.835572914
 H       -0.425208135    15.074391584     0.657580367
 H        3.309721752    19.646356054     0.054836602
 H        3.151500649    17.874731670    -0.133707829
 H        2.283872740    18.735037323     1.179664199
 H        4.254342399    19.764533920    -5.434723937
 H        3.051116196    18.560440980    -5.982914532
 H        4.806848749    18.219442869    -6.103731823
 H        2.580296952    16.920209644    -2.148101056
 H        1.868851010    14.593663410    -2.085841542
 H        3.943393396    13.840776086    -5.786360734
 H        4.622530194    16.189806717    -5.891217972
 H        1.787248482    12.453958661    -2.956793181
 H        3.334192435    11.965791513    -5.621793569
 H        1.802213512    11.054080764    -1.927938251
 H        1.461511726     9.957882272     0.209743076
 H        1.811323606     6.100594952    -1.665556721
 H        2.070988428     7.146480468    -3.830996789
 H        1.283365544     8.040504181     1.573491408
 H        1.519170329     5.319478891     0.112988061
 H        1.007158103     7.140284573     3.434080428
 H        0.690390576     5.963257504     5.539175728
 H        1.029942129     2.174111647     3.421931722
 H        1.313192016     3.392332510     1.340335906
 H        0.632270689    20.491178251    -1.996419411
 H        2.305031050    20.786735575    -1.483968326
 H        1.526040551    18.468559086    -3.394633131
 H        1.924388525    20.080835134    -3.973451164
 H        4.226755045    19.953197937    -3.167286070
 H        3.879428004    18.581543872    -2.098800081
 H        2.263492199    -1.029874882     0.016454953
 H        2.262658468     0.524737250     0.888993103
 H        2.276123975     0.501595488    -0.893429789
 H        1.170724787     3.442752854     8.633326846
 H        0.781332951     4.981618161     7.824034573
 H        2.364382756     4.208199151     7.553205473
 H       -1.396594966     2.241076828     7.451280956
 C       -2.049003764     4.126294766     6.590345299
 C       -1.914300735     1.953594987     5.359249435
 H        0.912298549     0.821813037     5.256062832
 C        2.920884372     1.427681876     5.812313584
 C        1.209242084     0.475176351     7.374602506
 H        0.346048051     8.673742907    -5.707169536
 C       -0.591912911    10.504178629    -5.008975738
 C        0.678430972    10.264728655    -7.151974619
 H        3.812949361     9.696466120    -6.585735219
 C        4.882826093     8.926250174    -4.859162014
 C        3.221261477     7.648191033    -6.228850645
 H       -5.119035165    13.792253329    -2.288803436
 C       -3.823986540    12.574165542    -3.540284100
 C       -5.938260306    11.788362081    -2.458301930
 H       -5.807679944    11.869347619     0.636371541
 C       -4.395984948    12.541622395     2.147761657
 C       -5.798191560    14.037014855     0.711986266
 H       -0.203296784    -1.926902877    -1.520657011
 C       -2.176114002    -1.018244224    -1.583797527
 C       -0.179696913    -0.221251054    -2.863276901
 H       -1.768896926    -0.874053651     1.478427996
 C       -0.268619987    -2.439053624     1.513094332
 C       -0.180475032    -0.330784052     2.856639428
 H       -1.711111812     4.757953059     7.421592786
 H       -3.115435583     3.929496984     6.769557895
 H       -1.997012586     4.727305066     5.670321895
 H       -1.496669186     0.941139407     5.289275642
 H       -1.828169775     2.425162071     4.368780472
 H       -2.990198576     1.828913213     5.547131479
 H        3.147254854     1.997561732     4.899546731
 H        3.330699994     0.419742658     5.657255202
 H        3.501905673     1.873970137     6.630278156
 H        0.152381949     0.305613055     7.617366020
 H        1.694772534     0.888974487     8.268245293
 H        1.651758074    -0.519255955     7.218159678
 H       -0.792037534    10.135040845    -3.993054025
 H       -1.519211882    10.346488086    -5.577939485
 H       -0.447087046    11.592341149    -4.948941543
 H        1.454690243     9.752700606    -7.734121141
 H        0.862535364    11.345634420    -7.227859289
 H       -0.269728077    10.077777435    -7.676420722
 H        5.261338217     9.895932801    -4.505423471
 H        5.686932030     8.483284156    -5.463087096
 H        4.766545452     8.279495532    -3.977677472
 H        2.308036167     7.642551232    -6.837155911
 H        3.100433465     6.899116243    -5.435125318
 H        4.024996722     7.272150765    -6.878877966
 H       -2.941771610    13.229053754    -3.524927281
 H       -4.381121027    12.827269770    -4.453014025
 H       -3.468434517    11.541855649    -3.674196361
 H       -6.691470049    11.913592343    -1.670148361
 H       -5.650780594    10.727137779    -2.479034669
 H       -6.453833757    11.984288772    -3.409294642
 H       -3.843868881    11.600423197     2.274894573
 H       -5.168122866    12.553131853     2.930057613
 H       -3.705969769    13.363660777     2.384281881
 H       -6.375726125    14.178543211    -0.210506540
 H       -5.131638975    14.904154095     0.824295842
 H       -6.520663866    14.095286123     1.538434258
 H       -2.582537433    -1.574769732    -0.729729531
 H       -2.491189221    -1.565205672    -2.484206322
 H       -2.686529124    -0.045124366    -1.622251558
 H        0.911529700    -0.153649829    -2.956287177
 H       -0.592763301     0.789227383    -2.995079109
 H       -0.525127952    -0.807832818    -3.726857623
 H       -0.635934160    -2.974986033     0.628577656
 H       -0.715310833    -2.944521506     2.381603470
 H        0.813671436    -2.610842378     1.581146250
 H       -0.477872759     0.722198595     2.972412862
 H        0.906966376    -0.391283712     3.000145027
 H       -0.632772944    -0.873689055     3.698939911

