187   

Si        0.000000000     0.000000000     0.000000000
 C        1.865155518     0.000000000     0.000000000
 C       -0.675825194     1.712506556     0.000000000
 C        0.123930146     2.800918690    -0.362974828
 C       -0.395639176     4.095227528    -0.360381724
 C       -1.725564449     4.330562095    -0.001987723
 C       -2.527077826     3.238515748     0.356627655
 C       -2.010962869     1.945539125     0.356437691
 C       -2.311493801     5.666925605     0.015023906
 C       -1.653373417     6.794183933    -0.304477403
 C       -2.237162646     8.131267730    -0.288168110
 C       -3.566892241     8.369137021     0.069879499
 C       -4.083897205     9.664376667     0.071623301
 C       -3.283838098    10.749186487    -0.300324040
 C       -1.950611687    10.513739137    -0.662375370
 C       -1.434331471     9.220991930    -0.650987881
Si       -3.934087237    12.469197898    -0.309003066
 C       -3.209727987    13.458380596    -1.667005598
 C       -2.810239383    12.940651902    -2.836120498
 C       -2.229591171    13.724198843    -3.928407175
 C       -1.851036373    13.059073167    -5.105225779
 C       -1.297265873    13.752429868    -6.168259008
 C       -1.140270992    15.151744936    -6.096407811
 C       -1.514462766    15.819927521    -4.921460952
 C       -2.032420738    15.104187091    -3.846783753
 N       -0.566472449    15.798408815    -7.220158046
 C       -1.334415915    15.672923071    -8.475455253
 C       -0.033154399    17.148794636    -6.986139949
 C       -2.432891557    16.723443727    -8.714654244
 C       -3.619337329    16.647037358    -7.735427899
 N       -4.575345349    15.553700325    -7.974290041
 C       -5.070028819    15.390095133    -9.275044996
 C       -5.341324356    16.530536974   -10.064085068
 C       -5.830559802    16.391138586   -11.351892912
 C       -6.112035337    15.126231450   -11.888926421
 C       -5.871158988    14.001179191   -11.095924274
 C       -5.366220213    14.120440386    -9.807820317
 C       -4.329644883    14.341530690    -7.182985824
 C       -6.627458897    15.036338049   -13.255473005
 C       -6.930872031    13.885380639   -13.870939339
Si       -7.574909541    13.764040282   -15.576929469
 C       -8.568472235    15.236660816   -16.054930858
 C       -9.300730122    15.930942439   -15.082888590
 C      -10.056491443    17.046840789   -15.432049815
 C      -10.111232157    17.488669412   -16.760581263
 C       -9.387319247    16.788508907   -17.729584677
 C       -8.625880799    15.673022115   -17.382526455
 C      -10.917078829    18.663158883   -17.077427729
 C      -11.050495790    19.190639186   -18.306223021
 C      -11.856120409    20.365031758   -18.623783060
 C      -12.580684826    21.066648291   -17.656824818
 C      -13.338180287    22.184925603   -18.005022094
 C      -13.392060089    22.622562714   -19.332019648
 C      -12.667210702    21.919847202   -20.304193175
 C      -11.908358101    20.807036328   -19.952743653
Si      -14.386763529    24.096324735   -19.808523143
 C      -15.535187100    24.623207520   -18.436189766
 C      -13.220557309    25.544019351   -20.218087685
 C      -15.383434421    23.661230740   -21.370750733
 C       -6.109431973    13.549470927   -16.771806759
 C       -8.682915666    12.221402315   -15.687805333
 C       -5.825682921    12.463186478    -0.510628394
 C       -3.496286486    13.299066623     1.344998116
 C       -0.620913981    -0.916908360    -1.547903945
 C       -0.653123263    -0.909188706     1.539673794
 H        1.171576908     2.679970046    -0.652272146
 H        0.248837571     4.925520829    -0.643510167
 H       -3.565814659     3.399600319     0.638842120
 H       -2.683833978     1.133163856     0.645030511
 H       -3.362686061     5.701758557     0.315658529
 H       -0.601918183     6.758039702    -0.604732043
 H       -4.212054799     7.540301324     0.354954400
 H       -5.128792005     9.788279950     0.368920293
 H       -1.278487786    11.325467935    -0.961133842
 H       -0.395283006     9.057777893    -0.931293885
 H       -3.135934867    14.537043819    -1.462533966
 H       -2.880991809    11.867336961    -3.064633964
 H       -1.978751751    11.978056287    -5.178758977
 H       -0.966224229    13.220981073    -7.058510187
 H       -1.397353145    16.895829865    -4.835370205
 H       -2.302150776    15.640139446    -2.935920379
 H        0.523017970    17.472806052    -7.883340363
 H        0.690201934    17.110234710    -6.151707172
 H       -0.795971753    17.908498215    -6.755187638
 H       -4.005076913    14.614760737    -6.161480223
 H       -3.563138744    13.677369532    -7.614399429
 H       -5.275511426    13.779131236    -7.076256150
 H       -5.168971527    17.523783336    -9.660316314
 H       -6.014782588    17.283617144   -11.951509070
 H       -6.082286655    13.005590272   -11.488982843
 H       -5.189394906    13.220554609    -9.228041230
 H       -6.751289366    16.017174611   -13.736338553
 H       -6.788536690    12.916188355   -13.369025026
 H       -9.300530084    15.627071273   -14.030307887
 H      -10.613278573    17.577743132   -14.662080052
 H       -9.413601778    17.109696712   -18.769021015
 H       -8.082575283    15.166259341   -18.184629814
 H      -11.430010276    19.110731708   -16.221027095
 H      -10.538130438    18.742691113   -19.162648530
 H      -12.558613388    20.744307673   -16.617406715
 H      -13.883107672    22.692926217   -17.204523334
 H      -12.672805653    22.214847093   -21.357330499
 H      -11.351638378    20.274777217   -20.721626761
 H       -0.588923783    15.731807078    -9.305353971
 H       -1.777351241    14.653563720    -8.532982061
 H       -1.999517502    17.740213650    -8.674420146
 H       -2.802746616    16.608565392    -9.755878737
 H       -3.245327120    16.573922599    -6.688559052
 H       -4.195465073    17.602819120    -7.781633754
 H        2.263335348    -1.029065974     0.053357684
 H        2.260487132     0.554359881     0.870701027
 H        2.275516750     0.467970186    -0.911897452
 H      -16.160944185    25.478843340   -18.746862728
 H      -14.979377487    24.928662371   -17.532383253
 H      -16.216365185    23.800663599   -18.151848063
 H      -13.892788169    26.424630968   -20.432336180
 C      -12.307076130    25.917370449   -19.036022943
 C      -12.344577938    25.300447104   -21.459942213
 H      -14.620372901    23.403966137   -22.162004710
 C      -16.286320820    22.430644837   -21.170234032
 C      -16.236082657    24.827842230   -21.900482271
 H       -6.558774036    13.406256612   -17.796599559
 C       -5.204215070    14.793665386   -16.814715215
 C       -5.246338150    12.314680013   -16.456187367
 H       -8.030859842    11.347446467   -15.398650080
 C       -9.864800497    12.282335949   -14.703437485
 C       -9.225101071    11.965953606   -17.104804789
 H       -6.232181449    11.878190852     0.364322619
 C       -6.444541349    13.871797059    -0.467621286
 C       -6.272245301    11.762905426    -1.806579699
 H       -3.919812624    14.343482220     1.292934669
 C       -4.120592859    12.589438916     2.558940789
 C       -1.975748665    13.410089201     1.557287204
 H       -0.138116320    -1.936205118    -1.514130477
 C       -2.147422895    -1.113151846    -1.572709624
 C       -0.190762393    -0.227660814    -2.855752849
 H       -1.777866341    -0.914718904     1.442220497
 C       -0.182705062    -2.371595055     1.634655858
 C       -0.297504910    -0.181814935     2.848995181
 H      -12.858822534    26.189440837   -18.127036715
 H      -11.693120596    26.791665242   -19.295773777
 H      -11.603315054    25.115289297   -18.770533077
 H      -12.924337387    25.109336336   -22.371750864
 H      -11.638586738    24.468555772   -21.327319940
 H      -11.732298005    26.190220645   -21.667502753
 H      -15.735733039    21.537237470   -20.842184746
 H      -16.771729097    22.160563624   -22.118870047
 H      -17.094847002    22.604415544   -20.447877798
 H      -15.648238446    25.724719558   -22.134864736
 H      -17.035364470    25.123141042   -21.207888808
 H      -16.733947283    24.533921278   -22.835999229
 H       -5.738329708    15.712820252   -17.093003451
 H       -4.411739210    14.658834556   -17.563957223
 H       -4.696064384    14.984608798   -15.858315748
 H       -5.807910665    11.372237980   -16.481285094
 H       -4.746410973    12.381914503   -15.479675801
 H       -4.446544566    12.214697521   -17.203991342
 H       -9.555244995    12.410423581   -13.657044926
 H      -10.437602400    11.345144750   -14.743218460
 H      -10.575978778    13.086989459   -14.939669482
 H       -8.436468983    11.816114169   -17.852991187
 H       -9.879400083    12.772973457   -17.464698595
 H       -9.835042237    11.051047964   -17.114851335
 H       -6.233234023    14.413376246     0.463169092
 H       -7.539835991    13.802599398    -0.538922691
 H       -6.123098673    14.505580362    -1.306003645
 H       -5.918353693    10.725877639    -1.887984644
 H       -5.947436659    12.294484726    -2.713029967
 H       -7.369560292    11.717728283    -1.852288075
 H       -5.217078981    12.554648729     2.527393130
 H       -3.857342993    13.123843619     3.483437696
 H       -3.756633946    11.559836836     2.687519195
 H       -1.461088492    13.955611856     0.754713641
 H       -1.486572671    12.430543684     1.660192884
 H       -1.763903991    13.957229939     2.486986963
 H       -2.527182442    -1.684686571    -0.716390247
 H       -2.438757799    -1.677580124    -2.470571366
 H       -2.699509521    -0.163658133    -1.616681576
 H        0.896980435    -0.120487940    -2.955463884
 H       -0.636694387     0.769781895    -2.979191842
 H       -0.521115297    -0.821001436    -3.720424922
 H       -0.462159532    -2.975930155     0.762029341
 H       -0.644924247    -2.858434570     2.505770048
 H        0.902768059    -2.464291068     1.772154828
 H       -0.652119642     0.858467214     2.877695403
 H        0.781313034    -0.168867184     3.053479773
 H       -0.768018392    -0.690272156     3.702586851

