187   

Si        0.000000000     0.000000000     0.000000000
 C        1.865459055     0.000000000     0.000000000
 C       -0.684089488     1.708716783     0.000000000
 C        0.140562474     2.821377068    -0.192354348
 C       -0.394145374     4.109831686    -0.189496316
 C       -1.763471522     4.314635146    -0.002609099
 C       -2.589079483     3.198205909     0.187850075
 C       -2.057821852     1.911752001     0.191057907
 C       -2.368201644     5.642398513     0.008132516
 C       -1.694476548     6.793476187    -0.156453795
 C       -2.304254939     8.119181015    -0.144859935
 C       -1.484708026     9.240626401    -0.328894296
 C       -2.023058827    10.524914506    -0.325265702
 C       -3.395817038    10.718708672    -0.127241537
 C       -4.215991708     9.600106372     0.055970615
 C       -3.675507742     8.315203421     0.041548294
Si       -4.121021612    12.408136801    -0.119864920
 C       -5.629264732    12.523048897     0.905733554
 C       -5.864455800    11.772199871     1.989997360
 C       -7.074491639    11.869082312     2.807176489
 C       -7.203128597    11.024336938     3.922119973
 C       -8.326103965    11.074242290     4.728606340
 C       -9.343919308    12.019162906     4.474431921
 C       -9.216879182    12.865855552     3.360759475
 C       -8.105507014    12.767816944     2.529585319
 N      -10.472100610    12.036925506     5.320105924
 C      -10.212631151    12.070874256     6.769926558
 C      -11.616226244    12.852414016     4.892326672
 C      -10.142016409    13.477889944     7.397261113
 C       -8.880014293    14.253064006     6.983771737
 N       -7.635860897    13.624624404     7.491591678
 C       -6.455956762    14.127415634     6.876122532
 C       -6.343588489    14.041235653     5.475063431
 C       -5.214745454    14.516448581     4.827953544
 C       -4.141606948    15.054314572     5.554518845
 C       -4.246035582    15.116230394     6.945860252
 C       -5.381575146    14.658731373     7.605649155
 C       -7.590991079    13.541780437     8.961930889
 C       -2.964293831    15.547083542     4.835234225
 C       -1.894591882    16.075787164     5.443536566
Si       -0.383092578    16.716340444     4.643331077
 C        0.008576192    18.393509609     5.284949596
 C       -0.992089433    19.175925714     5.870683245
 C       -0.698810466    20.448765951     6.358581652
 C        0.593858729    20.971122114     6.260740659
 C        1.592419609    20.187240723     5.667257008
 C        1.305003816    18.913427158     5.184070574
 C        0.945447583    22.297480400     6.757462957
 C        0.085018666    23.146161215     7.345142561
 C        0.434309660    24.472722561     7.842525574
 C        1.726490288    24.996386075     7.751890844
 C        2.015834359    26.270276842     8.240981360
 C        1.014728247    27.051880483     8.826013824
 C       -0.282589387    26.529385314     8.917068803
 C       -0.566916911    25.255522203     8.433314390
Si        1.379577039    28.734956699     9.476419884
 C        3.050545318    29.342098812     8.911550119
 C        0.012421478    29.914788909     8.874347568
 C        1.354086970    28.699342852    11.379432162
 C        1.026869288    15.501748508     5.037438971
 C       -0.592725069    16.829571375     2.757015749
 C       -2.854834899    13.643314211     0.584005150
 C       -4.553902693    12.915607784    -1.898922338
 C       -0.599577320    -0.930308499    -1.549158034
 C       -0.660840551    -0.898714119     1.542295509
 H        1.218767684     2.723942448    -0.345923688
 H        0.269883857     4.959490325    -0.337296714
 H       -3.658524616     3.335772070     0.336400172
 H       -2.750412842     1.080089531     0.349098283
 H       -3.451136405     5.649628017     0.164746607
 H       -0.612078309     6.788085980    -0.313199388
 H       -0.414805909     9.109687158    -0.477960394
 H       -1.335369131    11.361006386    -0.479082147
 H       -5.296780260     9.691514095     0.209648565
 H       -4.335549402     7.460954955     0.181709768
 H       -6.351248886    13.282495990     0.569659848
 H       -5.155203262    11.015295751     2.355206748
 H       -6.409943292    10.311666501     4.153976184
 H       -8.420279288    10.390577386     5.569446289
 H       -9.979440070    13.603031191     3.134501994
 H       -8.038348451    13.423563000     1.660956937
 H      -12.469965927    12.663068537     5.565423862
 H      -11.926880731    12.534868563     3.879973457
 H      -11.416797974    13.935995463     4.875201795
 H       -8.440742591    12.933297750     9.315286790
 H       -7.623725159    14.518261135     9.469051788
 H       -6.675954275    13.005057128     9.270907968
 H       -7.148289185    13.587201600     4.895098240
 H       -5.156216928    14.446259820     3.740008843
 H       -3.428078102    15.530988908     7.536478774
 H       -5.426623198    14.740421886     8.686721177
 H       -3.045375305    15.447419027     3.744536069
 H       -1.850817787    16.149790939     6.544480252
 H       -2.023298095    18.820755290     5.969630602
 H       -1.492251912    21.036675145     6.816476210
 H        2.605300716    20.575857796     5.581949470
 H        2.123585985    18.345885512     4.733214514
 H        1.994369490    22.575073078     6.618860964
 H       -0.964063901    22.868039366     7.483050729
 H        2.522638253    24.409919157     7.297048792
 H        3.045442778    26.625219952     8.142831371
 H       -1.105362458    27.095082546     9.363423829
 H       -1.580077296    24.866319141     8.514281587
 H      -11.030104766    11.488993299     7.255681638
 H       -9.260834006    11.532540732     6.994612784
 H      -11.031914510    14.071643515     7.115865506
 H      -10.195301208    13.380801623     8.498053746
 H       -8.828309788    14.284717384     5.869333991
 H       -8.964505032    15.308027073     7.329623299
 H        2.262909047    -1.030094379     0.035392964
 H        2.262944888     0.538777822     0.879220155
 H        2.273735532     0.483174983    -0.905002398
 H        3.244406601    30.367848481     9.272910634
 H        3.112583548    29.362019399     7.808295173
 H        3.866889786    28.698673231     9.283859397
 H       -0.953507686    29.508103238     9.293918328
 C        0.177164992    31.357404223     9.384581629
 C       -0.113558154    29.936416719     7.340236481
 H        1.645309922    29.739056561    11.707264405
 C       -0.030176366    28.383195551    11.973414699
 C        2.378698967    27.709762001    11.964087586
 H        1.913914244    15.834453213     4.426088340
 C        1.434791131    15.531484254     6.521232620
 C        0.682423712    14.055043224     4.640911313
 H       -0.979008608    15.820815492     2.425668307
 C       -1.624633275    17.899751135     2.355953541
 C        0.720700320    17.101260415     2.003496603
 H       -1.992831981    13.661711984    -0.142288445
 C       -3.416886637    15.070783753     0.696493561
 C       -2.319962691    13.199498905     1.956070388
 H       -4.961832227    13.965466500    -1.836676967
 C       -3.334702168    12.932496111    -2.837460579
 C       -5.642780204    12.015408029    -2.509933556
 H       -0.080875817    -1.932115403    -1.519696055
 C       -2.117556144    -1.182485245    -1.576537402
 C       -0.194876112    -0.221325423    -2.854758014
 H       -1.785604233    -0.891119437     1.445198443
 C       -0.205792133    -2.365575113     1.641030316
 C       -0.297133418    -0.171189813     2.849357108
 H        0.205024724    31.431115036    10.479405102
 H       -0.675147588    31.970502574     9.057177295
 H        1.077119425    31.849922440     8.993073719
 H       -0.287569050    28.941760925     6.905187548
 H        0.766551042    30.365234724     6.843020771
 H       -0.970744124    30.556206817     7.040903522
 H       -0.809103726    29.092700811    11.666982229
 H        0.012972854    28.431538206    13.071351762
 H       -0.378903836    27.370607414    11.726173590
 H        3.411225871    27.916701414    11.654643875
 H        2.157497394    26.663973031    11.706281985
 H        2.370627219    27.763905083    13.062184586
 H        1.729487705    16.530172828     6.872941946
 H        2.304356507    14.879528239     6.686127589
 H        0.644171855    15.164670903     7.190282225
 H        0.486207952    13.932653509     3.567734478
 H       -0.187239917    13.658685910     5.187595063
 H        1.523664374    13.388054945     4.876716968
 H       -2.618912597    17.734983156     2.794224264
 H       -1.760482240    17.907763388     1.265329604
 H       -1.311132775    18.918040663     2.629597791
 H        1.480389833    16.324633015     2.158318335
 H        1.171085827    18.069677756     2.262736590
 H        0.532652468    17.132674295     0.920361308
 H       -3.761611850    15.481010258    -0.260888265
 H       -2.633741473    15.755919743     1.055209872
 H       -4.248053472    15.149360329     1.411630068
 H       -1.882513004    12.191179385     1.952870066
 H       -3.091599021    13.216725041     2.740039931
 H       -1.519721304    13.875055992     2.290023979
 H       -2.548325758    13.628190909    -2.518308713
 H       -3.639078514    13.255008401    -3.843798927
 H       -2.875660316    11.940963991    -2.960659777
 H       -6.572862835    11.996987671    -1.925615753
 H       -5.312821856    10.974589273    -2.640728158
 H       -5.914827573    12.378546881    -3.511159958
 H       -2.482219574    -1.747222967    -0.709322351
 H       -2.382442252    -1.777751998    -2.462652123
 H       -2.702588007    -0.254799490    -1.646855596
 H        0.888375526    -0.075825250    -2.955274929
 H       -0.674439440     0.761056835    -2.973353002
 H       -0.505666868    -0.821809076    -3.721658942
 H       -0.492284952    -2.969409244     0.770330338
 H       -0.672187588    -2.845048834     2.513994523
 H        0.878796379    -2.469153960     1.777636095
 H       -0.642914464     0.872196615     2.875509566
 H        0.781783046    -0.167401132     3.053113495
 H       -0.771850480    -0.672899845     3.704622354

