187   

Si        0.000000000     0.000000000     0.000000000
 C        1.859829557     0.000000000     0.000000000
 C       -0.618064608     1.733512592     0.000000000
 C        0.007528353     2.678653660    -0.823044030
 C       -0.434909051     3.999778194    -0.847493937
 C       -1.511518236     4.406835401    -0.053731074
 C       -2.138856176     3.459406341     0.764731241
 C       -1.700686321     2.137200001     0.789177666
 C       -2.007905932     5.778850818    -0.047671161
 C       -1.496065487     6.777139864    -0.787230204
 C       -1.986909815     8.150617942    -0.786338747
 C       -3.061553586     8.569821651     0.002057929
 C       -3.496240367     9.895305875    -0.030321818
 C       -2.862807726    10.829040832    -0.854313106
 C       -1.783165891    10.411280738    -1.645978297
 C       -1.351319791     9.089344191    -1.610439878
Si       -3.392337008    12.591571923    -0.938709699
 C       -3.282847283    13.136491797    -2.685349293
 C       -3.464423985    12.267921972    -3.689218413
 C       -3.400169889    12.591300968    -5.113224260
 C       -3.617808639    11.547640648    -6.029023014
 C       -3.572659741    11.778115847    -7.390471233
 C       -3.269152190    13.066849800    -7.881904975
 C       -3.061739720    14.113257257    -6.971165631
 C       -3.156002200    13.874732595    -5.601897909
 N       -3.241160869    13.226565074    -9.285144069
 C       -2.329148025    12.315300510   -10.003424269
 C       -3.256236462    14.602632373    -9.797033414
 C       -0.942432369    12.866659987   -10.373224917
 C       -0.034369464    13.269249778    -9.196559893
 N        0.304409501    12.253140542    -8.185140638
 C        0.293940987    10.893207091    -8.499556202
 C        0.850713924    10.456640403    -9.721678206
 C        0.847961762     9.110589626   -10.048115591
 C        0.379859396     8.144804026    -9.145021541
 C       -0.134546926     8.576204394    -7.918791453
 C       -0.184888106     9.924240315    -7.594260207
 C       -0.049688277    12.627242792    -6.808486689
 C        0.399046246     6.736105707    -9.540493719
 C       -0.021556849     5.728838027    -8.763560763
Si       -0.012605706     3.960854614    -9.222983053
 C        0.774355563     2.945498746    -7.905131852
 C        1.560693322     3.539872646    -6.912897653
 C        2.153139902     2.761886654    -5.918039132
 C        1.988351749     1.374517740    -5.904572965
 C        1.204577383     0.780750223    -6.903231853
 C        0.601263925     1.555255648    -7.889906488
 C        2.586520547     0.517116559    -4.887095752
 C        3.358044962     0.946316646    -3.873793755
 C        3.950308978     0.076956299    -2.862381894
 C        3.763851146    -1.308622000    -2.857552979
 C        4.347826040    -2.103485179    -1.872439011
 C        5.141705428    -1.530733211    -0.871157154
 C        5.331357969    -0.143590707    -0.875757321
 C        4.741252721     0.649231295    -1.857636195
Si        5.898722371    -2.610412744     0.415936674
 C        6.541513435    -4.183867690    -0.353243076
 C        7.314416434    -1.685627536     1.289185776
 C        4.585460061    -3.050821433     1.722730518
 C       -1.817750542     3.392283576    -9.432827959
 C        0.912992881     3.686510460   -10.861586599
 C       -5.174684307    12.798681597    -0.313826144
 C       -2.235500756    13.657281763     0.126896835
 C       -0.630164621    -0.883534695    -1.563129025
 C       -0.641319326    -0.940358590     1.525152186
 H        0.853596075     2.418500206    -1.467736530
 H        0.067171137     4.715321246    -1.496144537
 H       -2.979842589     3.755237371     1.388516517
 H       -2.231716257     1.441720008     1.444171206
 H       -2.855355582     5.957565765     0.620230508
 H       -0.648808733     6.595233599    -1.455310978
 H       -3.571598134     7.860404307     0.650905861
 H       -4.340671655    10.164413592     0.609590901
 H       -1.249593261    11.100021904    -2.310640112
 H       -0.512199276     8.783015523    -2.232735552
 H       -3.079617723    14.199752441    -2.860265781
 H       -3.678327464    11.200549921    -3.511808071
 H       -3.835391301    10.542621584    -5.662374181
 H       -3.779511411    10.969295255    -8.089451884
 H       -2.835792763    15.114481231    -7.321593498
 H       -3.015531426    14.703514908    -4.907825724
 H       -3.406039692    14.575877873   -10.890806488
 H       -2.343871901    15.180064293    -9.582063752
 H       -4.121670264    15.138055053    -9.364957697
 H        0.144240493    13.700027893    -6.645725308
 H        0.597340940    12.073261647    -6.103095893
 H       -1.104891234    12.425060193    -6.552918621
 H        1.293546758    11.179251640   -10.400560684
 H        1.248074561     8.796988947   -11.012500342
 H       -0.512963404     7.846029603    -7.200978261
 H       -0.619749327    10.220656175    -6.643908175
 H        0.802262812     6.578524245   -10.549679956
 H       -0.427526889     5.918368227    -7.756310422
 H        1.732442693     4.620685976    -6.880678027
 H        2.751945423     3.248523384    -5.150265182
 H        1.062096849    -0.298054879    -6.909270705
 H       -0.004865965     1.037727557    -8.638577610
 H        2.366001471    -0.548727084    -5.003997176
 H        3.585059995     2.009687056    -3.756842816
 H        3.154445557    -1.780862198    -3.625943210
 H        4.162195556    -3.180383170    -1.920144481
 H        5.937352334     0.361109883    -0.118289923
 H        4.900355276     1.725974775    -1.841405260
 H       -2.195032150    11.375449442    -9.416612866
 H       -2.860494159    12.020313929   -10.941365045
 H       -0.435140004    12.102669751   -10.998948725
 H       -1.052787251    13.748662193   -11.034964602
 H        0.941451340    13.623249807    -9.616899861
 H       -0.495011703    14.146253958    -8.683981206
 H        2.265555719    -1.028839641     0.004740443
 H        2.258490802     0.526782657     0.885327319
 H        2.271134491     0.501418227    -0.896690595
 H        7.048656341    -4.816548865     0.396546584
 H        7.274018272    -3.960809042    -1.150621845
 H        5.731861539    -4.783478687    -0.803630418
 H        6.861921923    -0.733584934     1.693579646
 C        7.911287609    -2.461192683     2.477783929
 C        8.453252801    -1.300427327     0.327226736
 H        5.098868918    -3.756826900     2.438346435
 C        4.088891036    -1.836741633     2.526830542
 C        3.370322474    -3.782961940     1.125068706
 H       -1.768751537     2.311871077    -9.753601968
 C       -2.611068042     3.461019474    -8.115786679
 C       -2.574142249     4.178384488   -10.517792682
 H        0.451454235     4.404797063   -11.599819535
 C        2.413785802     4.011494704   -10.747955088
 C        0.758481446     2.263355932   -11.427001124
 H       -5.178657328    12.418166472     0.748627801
 C       -5.644753171    14.264376448    -0.294300455
 C       -6.181846771    11.964847032    -1.126246064
 H       -2.605115060    14.718255976     0.022990286
 C       -2.273354343    13.280604399     1.618273427
 C       -0.776896729    13.610629979    -0.363508917
 H       -0.169045645    -1.912910464    -1.539260485
 C       -2.161060548    -1.043174834    -1.593638956
 C       -0.179634816    -0.190301252    -2.860553816
 H       -1.764288887    -0.832244495     1.511577337
 C       -0.314821721    -2.444989468     1.498492091
 C       -0.120693055    -0.346707013     2.847657364
 H        7.174298208    -2.698054656     3.256146737
 H        8.689690591    -1.857231842     2.966736708
 H        8.395361602    -3.400188956     2.178698924
 H        8.116728473    -0.716431425    -0.540645990
 H        9.000678043    -2.172145883    -0.056186007
 H        9.193189682    -0.676940707     0.849324972
 H        4.888579789    -1.317191081     3.069794581
 H        3.361438129    -2.159305846     3.285854884
 H        3.570381151    -1.092823283     1.904062664
 H        3.633760116    -4.715971934     0.610682342
 H        2.800524288    -3.161294993     0.418827484
 H        2.670638847    -4.063502937     1.925946793
 H       -2.152325379     2.883995643    -7.300029133
 H       -3.616833289     3.041304235    -8.259424112
 H       -2.755124561     4.488777244    -7.755063091
 H       -2.112335432     4.104656301   -11.510653154
 H       -2.677918430     5.246366212   -10.277792937
 H       -3.595765482     3.786434695   -10.623486890
 H        2.618120089     5.028381007   -10.385358846
 H        2.893132638     3.932509117   -11.733690405
 H        2.950777859     3.315255315   -10.087598748
 H       -0.284196613     1.982189242   -11.621619268
 H        1.200056553     1.494584970   -10.777610325
 H        1.281545539     2.184281339   -12.391221833
 H       -5.023083557    14.913781943     0.335114064
 H       -6.663546107    14.326127274     0.115260577
 H       -5.690667667    14.711985986    -1.296841357
 H       -5.948626164    10.891287063    -1.144949179
 H       -6.269267833    12.300012520    -2.170193492
 H       -7.186199415    12.054173541    -0.688920720
 H       -3.270446961    13.375911646     2.067031683
 H       -1.613570657    13.947658750     2.191939340
 H       -1.916607471    12.258473215     1.810898559
 H       -0.658391486    13.916813645    -1.411639157
 H       -0.321978316    12.615466665    -0.253717990
 H       -0.157616910    14.297504348     0.230781225
 H       -2.557909373    -1.610613671    -0.742804505
 H       -2.463925422    -1.590694606    -2.497511258
 H       -2.689524654    -0.079886199    -1.628478212
 H        0.911982822    -0.087171751    -2.943899909
 H       -0.615845366     0.811109740    -2.986293513
 H       -0.501426030    -0.774555679    -3.733628811
 H       -0.724704267    -2.962617074     0.621776730
 H       -0.749872779    -2.939547509     2.378382980
 H        0.764579327    -2.647979159     1.533547855
 H       -0.334399623     0.725121676     2.960409110
 H        0.961961602    -0.482226142     2.976914708
 H       -0.599335614    -0.847778920     3.700489881

