187   

Si        0.000000000     0.000000000     0.000000000
 C        1.865303654     0.000000000     0.000000000
 C       -0.665729853     1.716726517     0.000000000
 C        0.087263436     2.769000464    -0.532094685
 C       -0.413875899     4.070245993    -0.533685409
 C       -1.679495805     4.349380917    -0.010741431
 C       -2.435215152     3.293361438     0.515330130
 C       -1.937673810     1.992814920     0.517989186
 C       -2.243407114     5.695130597     0.008232024
 C       -1.623338227     6.789944988    -0.463791961
 C       -2.184033665     8.136855870    -0.446475053
 C       -3.448855815     8.420853756     0.075256297
 C       -3.945378354     9.724230177     0.071206107
 C       -3.193023519    10.769559306    -0.472934700
 C       -1.925681968    10.487106854    -1.000780734
 C       -1.427215438     9.187602847    -0.982284896
Si       -3.814007877    12.501244147    -0.496510237
 C       -3.294606304    13.381522588    -2.012291593
 C       -3.087007005    12.781758258    -3.192460965
 C       -2.671291242    13.479801839    -4.409581990
 C       -2.486587299    12.737789900    -5.585368083
 C       -2.093809786    13.349101805    -6.764430832
 C       -1.817219702    14.733291084    -6.794409664
 C       -1.999429170    15.478156213    -5.614108302
 C       -2.441180629    14.857151360    -4.452608224
 N       -1.419288146    15.337244915    -8.001850033
 C       -0.562034907    14.535752078    -8.894754903
 C       -1.009545413    16.750573395    -7.937261418
 C        0.763944245    14.107872230    -8.240337775
 C        1.846159791    13.726544186    -9.263233780
 N        2.263913840    14.796978576   -10.198262752
 C        2.277106162    16.102999844    -9.657367418
 C        3.010931398    16.320345717    -8.471705923
 C        3.055842414    17.580890683    -7.901456828
 C        2.403337811    18.669759530    -8.500704006
 C        1.700763816    18.455237772    -9.687934535
 C        1.642839822    17.194200712   -10.271702358
 C        1.694225089    14.651693066   -11.547494590
 C        2.482837926    19.982105512    -7.855306129
 C        1.900919597    21.088032970    -8.336312723
Si        1.964579924    22.749803895    -7.577520691
 C        2.456846480    23.992689988    -8.839758986
 C        3.113002616    23.592509738   -10.008392157
 C        3.487087690    24.533769199   -10.966787858
 C        3.224186581    25.892791188   -10.774100092
 C        2.572131176    26.291186664    -9.599323958
 C        2.192946735    25.353850867    -8.642086549
 C        3.597480485    26.911962639   -11.749484607
 C        4.224475959    26.664546156   -12.912052438
 C        4.598311340    27.682630249   -13.888228819
 C        4.332658210    29.041375212   -13.700116218
 C        4.708003371    29.981068908   -14.660203016
 C        5.363272782    29.581284597   -15.829004916
 C        5.630910047    28.218824858   -16.019965339
 C        5.250530702    27.282788120   -15.062480241
Si        5.865269583    30.808844688   -17.105787817
 C        5.758171013    32.555102354   -16.458700790
 C        7.648031977    30.414746817   -17.644290535
 C        4.726102751    30.647695172   -18.622191302
 C        0.230104427    23.165924111    -6.914206807
 C        3.200647356    22.802098547    -6.133730964
 C       -5.713439544    12.527036091    -0.390682744
 C       -3.107255629    13.424937837     1.009024762
 C       -0.631207413    -0.904540395    -1.550888790
 C       -0.649649701    -0.921208507     1.534226627
 H        1.083867566     2.613288472    -0.954513336
 H        0.193988413     4.871677399    -0.949618579
 H       -3.423959656     3.488336156     0.926380483
 H       -2.574262327     1.210089130     0.939585451
 H       -3.242726416     5.766746196     0.447188289
 H       -0.623710703     6.716975726    -0.902452941
 H       -4.057973123     7.622767184     0.495172698
 H       -4.937334876     9.885631853     0.501743316
 H       -1.293987458    11.266794442    -1.440200636
 H       -0.439408116     8.987774675    -1.392977760
 H       -3.177634878    14.469154107    -1.895306692
 H       -3.206153351    11.698026693    -3.335923336
 H       -2.668252510    11.662210855    -5.577677147
 H       -1.998631955    12.753579469    -7.667512402
 H       -1.802154859    16.545336893    -5.594609498
 H       -2.590999895    15.460579581    -3.556258303
 H       -0.742725544    17.110352504    -8.947112975
 H       -0.143249183    16.932163270    -7.279508374
 H       -1.862383358    17.361944837    -7.592491342
 H        1.912377578    13.635819260   -11.921514448
 H        2.199954795    15.355490784   -12.233618554
 H        0.607797185    14.819972948   -11.606239056
 H        3.545635174    15.492169568    -8.012174377
 H        3.618207618    17.729789414    -6.978917700
 H        1.190023410    19.286474167   -10.177072422
 H        1.087906500    17.067149027   -11.195822784
 H        3.075573621    19.974553075    -6.931384997
 H        1.306404251    21.059468240    -9.265183029
 H        3.350696104    22.542959910   -10.210617490
 H        3.991814945    24.197925792   -11.870878396
 H        2.358277652    27.344783866    -9.430448248
 H        1.685651109    25.722388012    -7.746319654
 H        3.326727232    27.934185398   -11.469550619
 H        4.495504534    25.642024394   -13.191440246
 H        3.826980332    29.379221153   -12.797416896
 H        4.472716506    31.029488198   -14.457117607
 H        6.140569050    27.848018704   -16.913817519
 H        5.465671835    26.228994826   -15.229371067
 H       -1.137432019    13.645696831    -9.233681141
 H       -0.369684537    15.137801941    -9.811697020
 H        1.132696321    14.922867480    -7.584215323
 H        0.586514847    13.254376885    -7.556645929
 H        2.768308614    13.411912304    -8.715730307
 H        1.517653364    12.838889266    -9.846181430
 H        2.263630441    -1.028064425     0.068027735
 H        2.258860601     0.567057219     0.863474149
 H        2.277066321     0.456107951    -0.916985638
 H        6.102407099    33.281816497   -17.216192803
 H        6.391840073    32.685103666   -15.562559719
 H        4.724168897    32.826941385   -16.183169667
 H        7.619352219    29.367552037   -18.065036381
 C        8.178000151    31.350240243   -18.745465695
 C        8.635279053    30.420052720   -16.463107129
 H        5.048315756    31.462708504   -19.332986245
 C        4.857498898    29.299509114   -19.352976552
 C        3.243942963    30.876718680   -18.273504195
 H        0.319667202    24.176142676    -6.419724236
 C       -0.818424602    23.277251751    -8.035251959
 C       -0.266689149    22.160782932    -5.860201457
 H        2.908851590    21.957217033    -5.444837429
 C        4.650753295    22.567876644    -6.595021839
 C        3.144332060    24.112602735    -5.328552799
 H       -5.980710221    12.003154127     0.572029663
 C       -6.298415700    13.949679487    -0.334348395
 C       -6.373503691    11.763291114    -1.552699367
 H       -3.523041054    14.472291311     0.955500988
 C       -3.535781159    12.807925106     2.351726001
 C       -1.571282535    13.518278529     0.968773874
 H       -0.165120962    -1.931414136    -1.520079421
 C       -2.161003669    -1.074052495    -1.573927330
 C       -0.190140772    -0.219184475    -2.857122443
 H       -1.774963442    -0.918745242     1.444599411
 C       -0.188940032    -2.387999274     1.609501040
 C       -0.279039509    -0.212318773     2.849562055
 H        7.560720226    31.347352331   -19.653082546
 H        9.183249371    31.030938379   -19.057030840
 H        8.277169310    32.391622506   -18.411572310
 H        8.350715018    29.728745266   -15.656892635
 H        8.764541694    31.414451168   -16.015673415
 H        9.631238411    30.101769819   -16.802686300
 H        5.874461459    29.094231959   -19.710371577
 H        4.212763509    29.291565148   -20.243989927
 H        4.537094675    28.447386028   -18.737108800
 H        3.048505880    31.856251192   -17.818523290
 H        2.841083875    30.109278343   -17.596923512
 H        2.631506435    30.834374497   -19.185608067
 H       -0.550395424    24.007926712    -8.811612452
 H       -1.779945905    23.611364191    -7.619893599
 H       -1.014989255    22.318761037    -8.534708858
 H        0.388587269    22.091600432    -4.982323070
 H       -0.393091070    21.145390015    -6.262629708
 H       -1.252885413    22.467715455    -5.483354955
 H        4.791674543    21.627731432    -7.145513943
 H        5.320794066    22.520029275    -5.725058314
 H        5.031171961    23.379913852    -7.231815098
 H        2.162496184    24.306257335    -4.878355772
 H        3.421995259    24.993544675    -5.924496081
 H        3.860254378    24.071501238    -4.494520817
 H       -5.935149891    14.537456796     0.518131522
 H       -7.391949957    13.901936109    -0.229469310
 H       -6.103631425    14.527758986    -1.248695136
 H       -6.050641126    10.715793041    -1.628016171
 H       -6.192042624    12.234289774    -2.530086625
 H       -7.464094793    11.740811842    -1.419231515
 H       -4.623505110    12.792418493     2.496838456
 H       -3.123488161    13.395601597     3.184719083
 H       -3.165484234    11.781811354     2.489126313
 H       -1.186983304    13.998455251     0.058492791
 H       -1.081937653    12.537758819     1.059274029
 H       -1.207838352    14.121380462     1.812801120
 H       -2.548077796    -1.649541759    -0.723482056
 H       -2.464969475    -1.621707881    -2.477828948
 H       -2.697112464    -0.114700905    -1.602920278
 H        0.899264580    -0.132944967    -2.958212075
 H       -0.617566934     0.786833885    -2.976651704
 H       -0.533218391    -0.803253351    -3.723165450
 H       -0.479886638    -2.980889293     0.732779842
 H       -0.647673218    -2.880966988     2.479015301
 H        0.896879250    -2.490132430     1.737106033
 H       -0.620895963     0.831673901     2.892420559
 H        0.801148236    -0.213823732     3.047696933
 H       -0.749933817    -0.725223290     3.700233475

