187   

Si        0.000000000     0.000000000     0.000000000
 C        1.865170691     0.000000000     0.000000000
 C       -0.673536489     1.713416632     0.000000000
 C        0.074099581     2.773906125     0.522990096
 C       -0.437675364     4.071220685     0.522178857
 C       -1.708796265     4.337420972     0.006316162
 C       -2.459161850     3.273057333    -0.510706678
 C       -1.950951056     1.976879713    -0.511432802
 C       -2.286069275     5.677236473    -0.016072732
 C       -1.677011704     6.782718356     0.445443088
 C       -2.258725841     8.120844107     0.420796430
 C       -1.513540540     9.190054099     0.936207768
 C       -2.028278675    10.483751458     0.933457311
 C       -3.305690596    10.737570616     0.418030432
 C       -4.051059284     9.672694120    -0.098226379
 C       -3.529810514     8.379356630    -0.099287576
Si       -3.991082759    12.444731407     0.411711607
 C       -5.798364347    12.384178741     0.145497662
 C       -6.482956589    13.099476284    -0.756485570
 C       -7.933446277    13.020302834    -0.936963355
 C       -8.540534524    13.819204609    -1.915440597
 C       -9.909740207    13.781715842    -2.126226490
 C      -10.736270162    12.968837089    -1.321182173
 C      -10.125835978    12.165929914    -0.337251956
 C       -8.747589356    12.180521744    -0.171331292
 N      -12.125331519    12.928722356    -1.532568208
 C      -12.755048057    14.103914622    -2.157827035
 C      -12.946330315    12.348517847    -0.455640398
 C      -12.696989591    15.361416582    -1.275388336
 C      -13.235538650    16.580788334    -2.041072299
 N      -13.390672198    17.775817507    -1.193640643
 C      -14.343829898    17.717526459    -0.160596242
 C      -15.460232955    16.860287382    -0.261778404
 C      -16.398336065    16.803952056     0.756669752
 C      -16.294779906    17.627958170     1.885824866
 C      -15.206025237    18.500366934     1.970319282
 C      -14.247574006    18.556221658     0.967282751
 C      -12.102237846    18.414050925    -0.871630948
 C      -17.313974219    17.526389714     2.931028880
 C      -17.319916128    18.260248667     4.052180240
Si      -18.594311539    18.131982515     5.357176789
 C      -20.229721718    17.633328722     4.678361765
 C      -20.594622058    18.022026880     3.384131048
 C      -21.830058692    17.652417407     2.855132745
 C      -22.733572797    16.898803715     3.609824937
 C      -22.370068448    16.518578648     4.908235441
 C      -21.134608358    16.882682847     5.438374058
 C      -24.037010667    16.489400145     3.097649973
 C      -24.506053231    16.786775935     1.873934800
 C      -25.809559993    16.377355055     1.361722647
 C      -26.711463149    15.620566201     2.114064325
 C      -27.947863724    15.250786341     1.584832512
 C      -28.305905310    15.624304506     0.285786100
 C      -27.402413369    16.382136050    -0.471699158
 C      -26.171792326    16.754924988     0.061592848
Si      -29.933459788    15.144765158    -0.428103335
 C      -30.800509170    13.875817109     0.629281813
 C      -31.046946445    16.682401317    -0.567245068
 C      -29.633454358    14.451879900    -2.175459019
 C      -18.014081818    16.873336446     6.660494094
 C      -18.773185667    19.834235413     6.187605746
 C       -3.653197650    13.260235405     2.097612452
 C       -3.131898915    13.462872703    -0.945365883
 C       -0.646240695    -0.922317690    -1.535333960
 C       -0.629518176    -0.907862941     1.549765923
 H        1.074714079     2.627782198     0.939218566
 H        0.165818690     4.879557472     0.931029635
 H       -3.451974223     3.458234384    -0.916586032
 H       -2.583815102     1.187497935    -0.926280985
 H       -3.288931627     5.735051874    -0.449828066
 H       -0.674490772     6.726647331     0.879170469
 H       -0.520904227     9.009904857     1.344052236
 H       -1.401902960    11.278236719     1.348259566
 H       -5.052683084     9.814270928    -0.517623194
 H       -4.127556656     7.567557476    -0.509776878
 H       -6.314587147    11.687067224     0.826699443
 H       -6.001136201    13.807826340    -1.443090697
 H       -7.926589152    14.476162275    -2.532555990
 H      -10.338361370    14.391667544    -2.915592476
 H      -10.721831476    11.515981302     0.295553942
 H       -8.300431739    11.533835835     0.585954667
 H      -14.017799120    12.438727999    -0.700865314
 H      -12.776679091    12.821899439     0.525795613
 H      -12.726584980    11.268250020    -0.376035249
 H      -11.412990666    18.336059407    -1.728905334
 H      -11.606488670    17.976079822     0.010559880
 H      -12.267933850    19.491889242    -0.692218336
 H      -15.591236515    16.227840256    -1.134613828
 H      -17.239420207    16.114729467     0.667532583
 H      -15.101272794    19.154912846     2.837062022
 H      -13.420794212    19.251442966     1.071851441
 H      -18.092369018    16.783772179     2.703974103
 H      -16.523595164    18.990777697     4.260196464
 H      -19.930849602    18.618301014     2.748351561
 H      -22.087580283    17.960827920     1.843442759
 H      -23.059229965    15.932401180     5.512885019
 H      -20.907023725    16.557366980     6.457032695
 H      -24.638768036    15.900585830     3.796114827
 H      -23.904812057    17.376266017     1.175401738
 H      -26.455228381    15.313375891     3.126350871
 H      -28.611799538    14.660187939     2.222101146
 H      -27.627792745    16.701813787    -1.493080373
 H      -25.484116734    17.344972313    -0.541368617
 H      -12.265817996    14.287518837    -3.141595520
 H      -13.812279688    13.845055042    -2.396047643
 H      -13.280425866    15.203461714    -0.347210904
 H      -11.658610370    15.547120129    -0.939184986
 H      -12.557578480    16.839349572    -2.886257567
 H      -14.219631951    16.351201981    -2.510216553
 H        2.263251217    -1.028762470    -0.057703036
 H        2.277153111     0.465419966     0.912252534
 H        2.258730026     0.558282276    -0.869150503
 H      -31.753423335    13.558738451     0.169155601
 H      -31.031808209    14.270202106     1.634295104
 H      -30.177146951    12.972147168     0.756098040
 H      -32.043426200    16.303122982    -0.936680172
 C      -31.271886407    17.371269299     0.791347828
 C      -30.534752270    17.730158233    -1.571597054
 H      -29.141339092    15.284468340    -2.757782801
 C      -28.673950095    13.247980334    -2.174767264
 C      -30.926948307    14.061753212    -2.912283539
 H      -18.799153828    16.876273394     7.470700428
 C      -17.918642688    15.446607633     6.090689871
 C      -16.666542342    17.244941931     7.304699392
 H      -17.754353041    20.090099369     6.598844748
 C      -19.173498334    20.931191767     5.184747547
 C      -19.774595165    19.834733178     7.355618989
 H       -2.530629596    13.299518992     2.204499039
 C       -4.191890724    14.698567955     2.189756797
 C       -4.212636375    12.437579081     3.271988062
 H       -3.665817846    14.456804166    -0.970450535
 C       -1.643047537    13.731736345    -0.662240476
 C       -3.259809910    12.812729666    -2.335198138
 H       -1.771375342    -0.927863015    -1.444052488
 C       -0.282792821    -0.207983012    -2.849682803
 C       -0.175555128    -2.385718433    -1.614534516
 H       -0.160640117    -1.933423048     1.518192647
 C       -0.191083187    -0.222254910     2.856709238
 C       -2.158835416    -1.082035271     1.571925921
 H      -31.715338911    16.711046339     1.547743239
 H      -31.966966613    18.215212600     0.675220462
 H      -30.348047626    17.789984883     1.216070131
 H      -30.406454089    17.335871390    -2.587510494
 H      -29.583468563    18.186268436    -1.263236431
 H      -31.257080742    18.555606355    -1.652917287
 H      -27.701287319    13.468837237    -1.712163782
 H      -28.459020119    12.936573888    -3.206937756
 H      -29.089580056    12.367745854    -1.666741014
 H      -31.637407903    14.892330100    -3.013793216
 H      -31.455823322    13.225766253    -2.435674093
 H      -30.691484672    13.732590659    -3.934904608
 H      -18.863503849    15.082722081     5.663702738
 H      -17.647491770    14.738840285     6.886492783
 H      -17.146485858    15.348164011     5.313851583
 H      -16.676786464    18.221897306     7.804470855
 H      -15.834905201    17.243836296     6.586121355
 H      -16.404276452    16.508248763     8.077777774
 H      -18.474161206    21.030246944     4.343255419
 H      -19.195050562    21.909852115     5.684751441
 H      -20.178292493    20.779353973     4.764587651
 H      -19.504052658    19.141397651     8.162096825
 H      -20.800775335    19.597387496     7.040105433
 H      -19.819254203    20.834039370     7.812524886
 H       -3.770545344    15.370777026     1.431345893
 H       -3.934454955    15.135405063     3.165207959
 H       -5.287164065    14.750869885     2.108965405
 H       -3.836638209    11.404954843     3.298175663
 H       -5.310272868    12.391844150     3.278597888
 H       -3.917434687    12.895224865     4.226914181
 H       -1.468419868    14.277868874     0.273376480
 H       -1.215200922    14.352386771    -1.463071778
 H       -1.040220812    12.813121138    -0.634596684
 H       -4.298437365    12.621040256    -2.637752280
 H       -2.716660786    11.859398169    -2.410376425
 H       -2.830909793    13.472453598    -3.102295506
 H       -0.632686624     0.833481624    -2.889835330
 H       -0.750863714    -0.722490901    -3.700910812
 H        0.797066804    -0.200779854    -3.049331509
 H       -0.463802229    -2.983275714    -0.740079286
 H        0.911070506    -2.480262645    -1.741003307
 H       -0.629701906    -2.878974834    -2.486263987
 H        0.897994993    -0.132082567     2.958083273
 H       -0.532226864    -0.808519896     3.722074165
 H       -0.622154437     0.782117021     2.977217926
 H       -2.544144955    -1.655273721     0.719204531
 H       -2.697697264    -0.124323475     1.604543633
 H       -2.461343551    -1.634157732     2.473600085

