187   

Si        0.000000000     0.000000000     0.000000000
 C        1.866028801     0.000000000     0.000000000
 C       -0.669214370     1.714243775     0.000000000
 C        0.150412326     2.802081192     0.315991141
 C       -0.362743925     4.098052652     0.314155345
 C       -1.705967563     4.338231155     0.013878693
 C       -2.527108673     3.246246489    -0.296129651
 C       -2.016435569     1.950799777    -0.304872566
 C       -2.276708545     5.681347143     0.002623900
 C       -1.581480905     6.798512068     0.274414232
 C       -2.124289406     8.151694167     0.270815469
 C       -1.261098612     9.212151078     0.577653404
 C       -1.724294783    10.523179150     0.589234890
 C       -3.070383948    10.802731509     0.314086170
 C       -3.934887675     9.747372642     0.012143237
 C       -3.462312120     8.434366617    -0.014460959
Si       -3.627930068    12.547253998     0.342585851
 C       -5.404170539    12.783151099     0.692185468
 C       -6.239856761    13.539249159    -0.030446845
 C       -7.660151004    13.702734865     0.283665101
 C       -8.444365693    14.520676575    -0.543540733
 C       -9.792948441    14.704878659    -0.285127090
 C      -10.384413150    14.085640154     0.830611381
 C       -9.608163613    13.267326062     1.659385792
 C       -8.260813027    13.072214438     1.375288416
 N      -11.780670340    14.322054297     1.032719876
 C      -12.021186246    15.726754348     1.446765533
 C      -12.460534197    13.354890882     1.912739446
 C      -11.233212337    16.157238922     2.701287727
 C      -10.911828538    17.661025199     2.651872211
 N       -9.932602276    18.143296170     3.639210182
 C       -8.557444592    18.132638517     3.258124466
 C       -7.997912314    17.293403070     2.286024098
 C       -6.638387877    17.372087554     1.996583387
 C       -5.813156281    18.302719343     2.640684604
 C       -6.384925740    19.148574188     3.599826756
 C       -7.734232754    19.070759531     3.907947457
 C      -10.157385865    17.627418683     5.002257922
 C       -4.383504118    18.359087145     2.311822825
 C       -3.525882886    19.217856258     2.880559378
Si       -1.733548374    19.364901015     2.539190376
 C       -0.951410794    17.778442801     2.031042354
 C       -0.864020371    16.724434410     2.948318657
 C       -0.275902879    15.513001419     2.586796730
 C        0.252838051    15.329855356     1.306048805
 C        0.178576535    16.389577947     0.393497781
 C       -0.408913693    17.599938897     0.752788013
 C        0.877541479    14.082355085     0.880585366
 C        1.017814539    12.986998440     1.646534334
 C        1.646859523    11.748358624     1.199589270
 C        2.166483588    11.595133767    -0.088916457
 C        2.760575319    10.396534628    -0.480608820
 C        2.833981354     9.314616238     0.403961152
 C        2.304368809     9.463072179     1.691930792
 C        1.716758191    10.663783389     2.083245475
Si        3.622921614     7.737608404    -0.130888421
 C        4.826474602     8.030483348    -1.525389901
 C        4.569332723     6.893847012     1.289952355
 C        2.213145273     6.582225693    -0.678051570
 C       -1.527566885    20.664241759     1.156377329
 C       -0.878662325    20.039626403     4.101072718
 C       -2.796483700    13.474117072     1.785469104
 C       -3.140075634    13.381336372    -1.294521253
 C       -0.655290902    -0.898108690    -1.544881915
 C       -0.618961987    -0.920054890     1.546294316
 H        1.207969836     2.679531100     0.565726912
 H        0.298593640     4.928549070     0.561602882
 H       -3.576460551     3.409302418    -0.534094224
 H       -2.703953815     1.139037128    -0.557814691
 H       -3.338617114     5.730157876    -0.250084585
 H       -0.516891182     6.741148479     0.528925720
 H       -0.211826879     9.015513121     0.803767565
 H       -0.997121604    11.310665684     0.822340749
 H       -4.992896678     9.911899211    -0.210216377
 H       -4.150353995     7.627381622    -0.257112146
 H       -5.750788010    12.245069233     1.590423493
 H       -5.926526609    14.091052602    -0.925629668
 H       -7.991929029    15.013000765    -1.404243036
 H      -10.402870346    15.319282711    -0.944406042
 H      -10.045473783    12.780460321     2.525982591
 H       -7.670882420    12.426738529     2.027422439
 H      -13.549732440    13.515375977     1.829792022
 H      -12.178890739    13.424090951     2.974109181
 H      -12.257013062    12.330181533     1.555973891
 H      -11.211249513    17.790974616     5.282081028
 H       -9.533562311    18.193022534     5.715986407
 H       -9.920094859    16.557467917     5.114535072
 H       -8.612643004    16.561306937     1.765316885
 H       -6.215501589    16.692227785     1.254661839
 H       -5.767274255    19.884860943     4.114298745
 H       -8.168574825    19.742503767     4.645508388
 H       -4.076746389    17.616715246     1.563344892
 H       -3.878276471    19.952858771     3.624156221
 H       -1.263235343    16.805991970     3.964784142
 H       -0.228605220    14.706862996     3.317441718
 H        0.586920712    16.271539512    -0.608363825
 H       -0.428369465    18.390152324    -0.002914519
 H        1.254498051    14.090634928    -0.147488892
 H        0.650062418    12.972647885     2.676506687
 H        2.116050488    12.416917242    -0.800937616
 H        3.154823877    10.341301013    -1.499320831
 H        2.331746917     8.651517529     2.425144312
 H        1.310686190    10.757732479     3.088892754
 H      -11.754079118    16.370379016     0.577100441
 H      -13.111336668    15.864455365     1.605787337
 H      -11.805995757    15.913132894     3.612125687
 H      -10.289767315    15.581606256     2.785535779
 H      -10.556621559    17.950391372     1.636161328
 H      -11.845093293    18.247264164     2.830985759
 H        2.262975709    -1.029755366    -0.047365640
 H        2.276134177     0.472423901     0.909588211
 H        2.261453816     0.548317641    -0.874273745
 H        5.338534514     7.095580988    -1.814625369
 H        5.603487328     8.761445901    -1.239390804
 H        4.316376255     8.416372985    -2.425905597
 H        5.220479150     6.119491271     0.787545852
 C        5.492470708     7.871860439     2.039173209
 C        3.685800606     6.158797045     2.313954967
 H        1.610205270     6.397505874     0.260025265
 C        1.280257331     7.218245122    -1.722439445
 C        2.702246289     5.223341570    -1.208507830
 H       -0.450331515    20.598403121     0.828622584
 C       -2.425453827    20.373545340    -0.060414378
 C       -1.791081670    22.107672166     1.621597470
 H       -1.309252063    21.072286624     4.255145061
 C       -1.166943445    19.221665589     5.372158402
 C        0.644436286    20.177322970     3.931155069
 H       -1.720429805    13.628200891     1.483924863
 C       -3.439879793    14.851859741     2.019248922
 C       -2.816435689    12.679534836     3.102484953
 H       -3.544659081    14.433741922    -1.242254822
 C       -1.619192412    13.470897726    -1.504538592
 C       -3.768263541    12.681159806    -2.513613590
 H       -1.780130223    -0.898128933    -1.448795160
 C       -0.294438256    -0.164469182    -2.849382316
 C       -0.191754658    -2.362018192    -1.647503593
 H       -0.132416283    -1.937477073     1.512185695
 C       -0.190908716    -0.229459282     2.854329413
 C       -2.144625242    -1.121895413     1.571769015
 H        6.215299894     8.377940410     1.385304570
 H        6.086061116     7.332049874     2.790698877
 H        4.940251417     8.651071600     2.583342056
 H        3.061974001     5.374744575     1.864516390
 H        3.026286575     6.829853564     2.879531412
 H        4.318367417     5.655341359     3.059555707
 H        0.829581306     8.164671588    -1.389337061
 H        0.437612213     6.542004051    -1.936264228
 H        1.772717050     7.406034083    -2.684671444
 H        3.339434014     4.677551712    -0.501775897
 H        3.251907997     5.308414724    -2.155035566
 H        1.839576941     4.569410497    -1.415180861
 H       -2.303153552    19.364346687    -0.475180718
 H       -2.193179562    21.072328070    -0.876140799
 H       -3.494832389    20.504461577     0.163979063
 H       -1.105233354    22.442765623     2.410154505
 H       -2.818229590    22.263507068     1.978588364
 H       -1.650805684    22.803471730     0.781333147
 H       -2.236281132    19.042177101     5.547461983
 H       -0.796698893    19.761252546     6.255918577
 H       -0.658166724    18.248060473     5.376820229
 H        0.933755467    20.830454305     3.097506109
 H        1.148142592    19.211080964     3.783863092
 H        1.086845897    20.618981789     4.835683205
 H       -3.297304992    15.537515150     1.172895078
 H       -2.978600403    15.342693476     2.889168855
 H       -4.515546446    14.803565569     2.241252657
 H       -2.357266016    11.684714673     3.020126392
 H       -3.830028536    12.543258082     3.503201742
 H       -2.250270855    13.218899565     3.874809032
 H       -1.118477340    14.084563588    -0.742191185
 H       -1.398664341    13.942947492    -2.472056377
 H       -1.127115427    12.488133498    -1.523340776
 H       -4.862676156    12.605306224    -2.463935172
 H       -3.375427338    11.665691593    -2.668422646
 H       -3.539136148    13.241554624    -3.430584467
 H       -0.645286972     0.877345443    -2.872296708
 H       -0.765826247    -0.665775315    -3.706670641
 H        0.784607540    -0.154867855    -3.052295052
 H       -0.477763671    -2.970566235    -0.779889980
 H        0.893723703    -2.459384793    -1.781269429
 H       -0.652881847    -2.840830864    -2.523650724
 H        0.896460464    -0.119781386     2.954639344
 H       -0.520759297    -0.823198143     3.718943826
 H       -0.638880617     0.767223268     2.977024752
 H       -2.524276498    -1.685433335     0.710112618
 H       -2.699519441    -0.174565401     1.626753969
 H       -2.432402722    -1.696673387     2.464186500

