187   

Si        0.000000000     0.000000000     0.000000000
 C        1.865372309     0.000000000     0.000000000
 C       -0.668360760     1.715581443     0.000000000
 C        0.115522455     2.786714779    -0.441415239
 C       -0.392481859     4.085397509    -0.440658199
 C       -1.695587675     4.342858005    -0.006467415
 C       -2.481764262     3.268028301     0.429371421
 C       -1.977117465     1.970337187     0.430564259
 C       -2.267558727     5.685264967     0.011231786
 C       -1.619933337     6.796221057    -0.378772084
 C       -2.187249602     8.140306300    -0.362989171
 C       -3.489321690     8.404812713     0.069837653
 C       -3.990565145     9.706391040     0.067746976
 C       -3.203696999    10.770206992    -0.384159673
 C       -1.898427198    10.507520372    -0.821920259
 C       -1.396646359     9.209259786    -0.806029833
Si       -3.831562947    12.499297268    -0.401239785
 C       -3.178434691    13.439169465    -1.827310603
 C       -2.856739684    12.885801373    -3.004595277
 C       -2.333617021    13.631526929    -4.150106789
 C       -2.034360451    12.934658909    -5.330363071
 C       -1.537129377    13.592032788    -6.443215606
 C       -1.271191503    14.977418565    -6.394263680
 C       -1.567829950    15.676766907    -5.210857931
 C       -2.110631397    15.010065029    -4.118916604
 N       -0.765025410    15.619685737    -7.543886854
 C        0.274306076    14.882742640    -8.290296017
 C       -0.460850814    17.055741274    -7.419081990
 C        1.495390568    14.518466255    -7.425941696
 C        2.766524337    14.260493641    -8.251024948
 N        3.240914727    15.389684908    -9.084281631
 C        3.044217605    16.677526240    -8.538313144
 C        3.511835623    16.922031418    -7.229129323
 C        3.342918143    18.167765638    -6.650045252
 C        2.739055469    19.218722428    -7.358376982
 C        2.303187753    18.980405373    -8.662950300
 C        2.459242876    17.732443052    -9.256858958
 C        2.937147808    15.225956777   -10.515017165
 C        2.585606141    20.515883074    -6.697168576
 C        2.026486899    21.589771523    -7.270698184
Si        1.834560216    23.210469265    -6.445101045
 C        3.164829575    23.517942389    -5.213271231
 C        4.445647689    22.995996868    -5.428067320
 C        5.465541420    23.219517670    -4.504561204
 C        5.233946636    23.979934702    -3.354713607
 C        3.953566042    24.509137853    -3.146649223
 C        2.930913782    24.283710110    -4.064923719
 C        6.271404251    24.239241758    -2.361776114
 C        7.535513617    23.790409443    -2.442882143
 C        8.575135641    24.047855778    -1.451927207
 C        8.347687903    24.803134359    -0.298738454
 C        9.371591725    25.024244593     0.622468902
 C       10.645331951    24.486761180     0.412842407
 C       10.875506571    23.727333109    -0.742498932
 C        9.853444688    23.513434953    -1.662866400
Si       12.008173058    24.768455812     1.617956554
 C       11.374457307    25.500445752     3.212513946
 C       12.858662235    23.098679460     1.952760217
 C       13.287328459    25.960729925     0.866091016
 C        1.899317291    24.570109764    -7.773110685
 C        0.130996258    23.256386988    -5.599190708
 C       -5.732625424    12.514159777    -0.473995646
 C       -3.275209625    13.368025539     1.197082615
 C       -0.627226012    -0.911144322    -1.548459954
 C       -0.652303873    -0.913293056     1.537797236
 H        1.141920293     2.648313794    -0.792371669
 H        0.239934654     4.901817276    -0.784626697
 H       -3.499659396     3.446303572     0.770869459
 H       -2.637713490     1.172244384     0.780469704
 H       -3.297552794     5.739556833     0.375316223
 H       -0.589545264     6.739796246    -0.742407102
 H       -4.124655362     7.592493613     0.417334882
 H       -5.013481874     9.851704458     0.425416010
 H       -1.238179506    11.302410025    -1.185806675
 H       -0.379326366     9.024849748    -1.145792120
 H       -3.080989005    14.521978199    -1.658704507
 H       -2.955148128    11.808031647    -3.199635499
 H       -2.208853025    11.859150572    -5.379802926
 H       -1.352423306    13.034940968    -7.357154590
 H       -1.378058857    16.742937013    -5.132550160
 H       -2.346532651    15.578065044    -3.218046549
 H       -0.141021295    17.453668001    -8.398579212
 H        0.337394578    17.282484244    -6.692302528
 H       -1.378002313    17.600698806    -7.134353464
 H        3.325345636    14.248887285   -10.853567863
 H        3.477296336    15.996541356   -11.094476124
 H        1.865856401    15.280811620   -10.763610516
 H        4.011309254    16.126943893    -6.680225208
 H        3.697923235    18.337169004    -5.632145280
 H        1.835760062    19.782200615    -9.236291608
 H        2.106628916    17.585645385   -10.272571667
 H        2.985337655    20.529257438    -5.672947164
 H        1.626493127    21.548044321    -8.295085223
 H        4.688345207    22.398710092    -6.313724602
 H        6.451129808    22.796409509    -4.690515762
 H        3.752418856    25.104691739    -2.258268423
 H        1.952891866    24.722016141    -3.848926412
 H        5.949234558    24.845925657    -1.510521608
 H        7.856695281    23.184047273    -3.295141771
 H        7.363826718    25.228630433    -0.109818125
 H        9.133739759    25.624993076     1.504698636
 H       11.850627436    23.281373766    -0.958323995
 H       10.051845597    22.922371316    -2.554991922
 H       -0.185534546    13.967175586    -8.723535680
 H        0.578567757    15.509298494    -9.158442865
 H        1.680075654    15.325707703    -6.687661067
 H        1.266926674    13.624312930    -6.813204515
 H        3.605681083    14.009030541    -7.556912757
 H        2.622139234    13.365802668    -8.894696332
 H        2.263377880    -1.028301845     0.067025435
 H        2.259636611     0.565853306     0.863826035
 H        2.276602860     0.456297182    -0.917186300
 H       12.191896577    25.626151318     3.944929452
 H       10.613439916    24.845602140     3.674409898
 H       10.915077369    26.491767502     3.053689888
 H       13.246612510    22.743532048     0.953855040
 C       14.055890142    23.200656450     2.914382910
 C       11.879329007    22.035106204     2.481537778
 H       14.057000121    26.129971143     1.673740538
 C       14.010555261    25.393984385    -0.368735654
 C       12.675434951    27.324180938     0.495516778
 H        1.060698705    24.344337701    -8.493071858
 C        1.673485877    25.981340734    -7.203369721
 C        3.222347765    24.553342252    -8.559522960
 H        0.032694599    24.285152964    -5.146786538
 C       -1.038712416    23.053649936    -6.578476012
 C        0.016833055    22.221452428    -4.465249720
 H       -6.086024724    11.957873226     0.441591735
 C       -6.330067852    13.931928434    -0.427598284
 C       -6.274520257    11.786006960    -1.717159085
 H       -3.693920492    14.414320555     1.145421281
 C       -3.820532938    12.696901481     2.469696117
 C       -1.743052891    13.470849738     1.302777714
 H       -0.158150497    -1.936624794    -1.513255642
 C       -2.156383106    -1.085898020    -1.574386308
 C       -0.186006019    -0.229148425    -2.856444624
 H       -1.777218584    -0.915370374     1.443617142
 C       -0.186145638    -2.377588994     1.625427881
 C       -0.290438510    -0.192813521     2.849207623
 H       14.835218559    23.891169613     2.566866102
 H       14.539549975    22.218218461     3.016611650
 H       13.765998135    23.506267517     3.928441825
 H       11.021043251    21.866325964     1.815462748
 H       11.483082359    22.273306726     3.477495685
 H       12.389714319    21.065912875     2.575344975
 H       14.535191262    24.450326601    -0.172946047
 H       14.776516342    26.104079896    -0.713378123
 H       13.336079913    25.235180091    -1.221892775
 H       12.208448795    27.838782201     1.345121822
 H       11.923582283    27.251902633    -0.303535542
 H       13.458339629    27.999014174     0.120583047
 H        0.701957929    26.100797298    -6.707093470
 H        1.696203715    26.722779485    -8.015296467
 H        2.453500470    26.285499111    -6.490481639
 H        3.429933137    23.590260696    -9.045387923
 H        4.092796813    24.804843577    -7.936191978
 H        3.193453603    25.303683310    -9.362370622
 H       -1.070704312    23.801720017    -7.380796680
 H       -1.995494553    23.139249194    -6.043123737
 H       -1.037017333    22.058945086    -7.045963021
 H        0.785626496    22.338485082    -3.688707964
 H        0.067908840    21.183931193    -4.826608922
 H       -0.951876488    22.324332280    -3.956430826
 H       -6.050419169    14.494213857     0.472295448
 H       -7.428224001    13.876503068    -0.424933318
 H       -6.056362442    14.539198562    -1.301926434
 H       -5.937849039    10.743024596    -1.795248030
 H       -6.005727266    12.289604961    -2.657430622
 H       -7.372607366    11.753954823    -1.687777032
 H       -4.916825179    12.671403392     2.513273806
 H       -3.491046554    13.253081857     3.359279025
 H       -3.456542286    11.667737313     2.600881702
 H       -1.280413414    13.988185799     0.451139417
 H       -1.255416447    12.490187666     1.400538803
 H       -1.464369720    14.042554595     2.199308188
 H       -2.544299444    -1.655210617    -0.720216743
 H       -2.455731271    -1.642515631    -2.474359134
 H       -2.695209573    -0.128476850    -1.613958822
 H        0.903189802    -0.137092531    -2.954831098
 H       -0.618347144     0.774067783    -2.981543339
 H       -0.523353686    -0.818865036    -3.720873189
 H       -0.469786021    -2.977483343     0.751091604
 H       -0.647652170    -2.866647477     2.495673322
 H        0.899351549    -2.474365684     1.759741779
 H       -0.640922827     0.848704353     2.883590309
 H        0.789078815    -0.184518072     3.050511821
 H       -0.760004250    -0.703278078     3.702077691

