187   

Si        0.000000000     0.000000000     0.000000000
 C        1.865274798     0.000000000     0.000000000
 C       -0.672591470     1.713753307     0.000000000
 C        0.107139850     2.789280865    -0.437798714
 C       -0.407103908     4.085633341    -0.435806756
 C       -1.712064807     4.336261173    -0.003398304
 C       -2.493968733     3.256883728     0.429172455
 C       -1.983365391     1.961662537     0.428891029
 C       -2.291614903     5.675235492     0.016003606
 C       -1.651310917     6.791751014    -0.370464816
 C       -2.230439766     8.130997346    -0.351252117
 C       -3.536082062     8.381051853     0.081481145
 C       -4.049655439     9.677035007     0.083284797
 C       -3.263375882    10.753238559    -0.342805289
 C       -1.955569465    10.506528028    -0.777705618
 C       -1.448373683     9.209409299    -0.784854523
Si       -3.938020402    12.465058811    -0.341733482
 C       -2.568896117    13.671392892    -0.432854599
 C       -2.481886136    14.697922986    -1.288906615
 C       -1.364288891    15.642154096    -1.327049875
 C       -1.384054866    16.679893278    -2.270243954
 C       -0.351566019    17.599439759    -2.347752186
 C        0.776741140    17.480022083    -1.505138589
 C        0.798507769    16.436168667    -0.559135322
 C       -0.267642507    15.551847502    -0.465206997
 N        1.811529956    18.418346471    -1.596617865
 C        2.129761420    18.971066232    -2.922673262
 C        2.968568176    18.247857831    -0.709102117
 C        2.349869233    17.935141851    -4.040976753
 C        3.707075264    17.211999713    -3.985902736
 N        4.902756147    18.037781773    -4.248835839
 C        5.434784921    18.700851328    -3.113586652
 C        5.917235366    17.892452387    -2.064192838
 C        6.450038406    18.474413132    -0.926130837
 C        6.551115670    19.869671369    -0.809041526
 C        6.098649608    20.664387998    -1.864478624
 C        5.557430234    20.094181624    -3.012180410
 C        4.811345649    18.836755364    -5.479967377
 C        7.122806985    20.430742828     0.416958513
 C        7.271626850    21.742115453     0.646487054
Si        7.986635630    22.437509668     2.180320394
 C        9.223698930    21.306110583     2.935976924
 C       10.017040959    20.495382483     2.113364834
 C       10.958299203    19.633270723     2.669117601
 C       11.140753093    19.568976947     4.056962225
 C       10.354138472    20.385448318     4.874156558
 C        9.406956785    21.246693523     4.321092210
 C       12.139860293    18.649388307     4.590941922
 C       12.410801075    18.486775498     5.897070908
 C       13.410388814    17.566605980     6.429452484
 C       14.195827070    16.751156339     5.610812851
 C       15.140270372    15.885359826     6.162141772
 C       15.324693057    15.822110230     7.546831875
 C       14.538596507    16.639932211     8.370096057
 C       13.592458896    17.498425274     7.817327301
Si       16.567093080    14.684615538     8.289556160
 C       17.726282275    13.997991443     6.999321122
 C       17.546473215    15.648234333     9.607160509
 C       15.673238006    13.235314173     9.140082102
 C        8.839993935    24.082881057     1.754844289
 C        6.570401736    22.777878675     3.404130665
 C       -5.131656025    12.668062526    -1.808207543
 C       -4.899569902    12.758418040     1.274266525
 C       -0.626024339    -0.911295832    -1.549132140
 C       -0.650953160    -0.915374055     1.537266172
 H        1.134717963     2.656030941    -0.787178975
 H        0.221858516     4.905623383    -0.777684255
 H       -3.513322170     3.429793247     0.769094501
 H       -2.641132201     1.160066418     0.776134175
 H       -3.322529873     5.722275163     0.378751340
 H       -0.620370864     6.744653905    -0.733456079
 H       -4.164920655     7.560583701     0.421659551
 H       -5.077577898     9.811136080     0.431248585
 H       -1.298594561    11.310793774    -1.124783699
 H       -0.430933944     9.035243618    -1.129684060
 H       -1.781920793    13.491474524     0.318614252
 H       -3.252146464    14.910591925    -2.041761619
 H       -2.233651151    16.776544024    -2.946912423
 H       -0.415999898    18.417724308    -3.058325025
 H        1.644262146    16.310780516     0.109060809
 H       -0.233200028    14.762131257     0.287420757
 H        3.679484839    19.084142819    -0.845971906
 H        3.518574529    17.306969513    -0.874144667
 H        2.629568665    18.287866145     0.342607438
 H        4.549099775    18.168358559    -6.318899055
 H        5.803942583    19.266609124    -5.705478992
 H        4.074866792    19.654308121    -5.441600467
 H        5.877808898    16.809052954    -2.160883164
 H        6.813089160    17.837253230    -0.118296123
 H        6.170960650    21.750703739    -1.798282791
 H        5.219253944    20.739491603    -3.817148133
 H        7.431532592    19.662450834     1.140458342
 H        6.946658443    22.492760141    -0.089781554
 H        9.922945025    20.507780293     1.022156010
 H       11.560568806    19.005622068     2.014737183
 H       10.476306608    20.355655652     5.955260284
 H        8.822028824    21.860691452     5.011327893
 H       12.681122485    18.073225917     3.834629850
 H       11.869945581    19.062701242     6.653708657
 H       14.075312700    16.784487034     4.529532872
 H       15.723556317    15.270811515     5.470798985
 H       14.639355315    16.633729694     9.459154173
 H       12.989962357    18.124180061     8.473052910
 H        1.287961453    19.647348799    -3.208554308
 H        3.023591344    19.629875545    -2.831218703
 H        1.546671143    17.168766065    -4.001651649
 H        2.224724731    18.432223315    -5.020934700
 H        3.820186436    16.709404795    -2.999275341
 H        3.715289646    16.396651776    -4.749258490
 H        2.263241101    -1.029171317     0.051781405
 H        2.259450637     0.553139544     0.872077892
 H        2.276567697     0.469906251    -0.910300731
 H       18.492658629    13.348456440     7.458922374
 H       18.255118335    14.810643599     6.468901714
 H       17.189714027    13.396209855     6.245131771
 H       16.786687433    15.989166996    10.369320585
 C       18.596996122    14.793795371    10.338451219
 C       18.230799501    16.901633509     9.032137623
 H       16.489876561    12.558584945     9.525595728
 C       14.804812894    13.661918611    10.337145832
 C       14.802103749    12.424099156     8.163627633
 H        8.041382611    24.743428625     1.309174760
 C        9.420161925    24.798212559     2.987191648
 C        9.954058609    23.906460680     0.707448251
 H        7.045757616    23.256009651     4.308786001
 C        5.513934026    23.751839313     2.852786227
 C        5.868399559    21.485044763     3.856850717
 H       -5.427762743    13.757150834    -1.816853149
 C       -4.464753340    12.340637289    -3.156940639
 C       -6.414959492    11.828596678    -1.676183383
 H       -5.743868813    12.009991671     1.273885708
 C       -4.040123895    12.503555283     2.525407680
 C       -5.511307238    14.167455981     1.362986806
 H       -0.153740984    -1.935290388    -1.515400548
 C       -2.154610448    -1.090922358    -1.574374021
 C       -0.187522955    -0.226219785    -2.856394094
 H       -1.775762947    -0.920760255     1.441968652
 C       -0.180387909    -2.378188846     1.625337205
 C       -0.292456871    -0.193775044     2.849035221
 H       18.170858637    13.914631364    10.838770995
 H       19.083045195    15.389223592    11.125157587
 H       19.401339719    14.445248470     9.677173816
 H       17.529996064    17.591362499     8.540253728
 H       19.023422508    16.665114789     8.309982995
 H       18.708871833    17.474328811     9.839684201
 H       15.370764690    14.173325469    11.126014464
 H       14.354838184    12.775878664    10.808527836
 H       13.966823146    14.311121025    10.046727196
 H       15.364164481    12.011589548     7.315937079
 H       13.963509486    13.006182756     7.755039737
 H       14.355089335    11.564129454     8.682801248
 H        8.664469195    25.046291801     3.743380935
 H        9.878450451    25.751965508     2.687441573
 H       10.213732046    24.221082072     3.483505237
 H        9.604648423    23.453949533    -0.230457598
 H       10.794427306    23.300165268     1.075718680
 H       10.377217927    24.884845442     0.438630677
 H        5.924886858    24.731361474     2.577189995
 H        4.747535058    23.946015938     3.617339975
 H        4.979594659    23.353395970     1.978967255
 H        6.548970804    20.756692577     4.319289481
 H        5.345216439    20.973030336     3.036103804
 H        5.104542469    21.715142180     4.613047626
 H       -3.557149841    12.927775972    -3.352994830
 H       -5.156899568    12.555916867    -3.982855280
 H       -4.194115145    11.278929677    -3.250640416
 H       -7.006196633    12.073665025    -0.784788443
 H       -6.219923032    10.747045087    -1.665047520
 H       -7.072489990    12.010346297    -2.538761322
 H       -3.602179552    11.495850746     2.554852630
 H       -4.656484995    12.596322448     3.430867712
 H       -3.219806216    13.226091965     2.635779976
 H       -6.207305195    14.392511072     0.544787811
 H       -4.752079956    14.962785778     1.381820979
 H       -6.087159107    14.270182584     2.293739006
 H       -2.539489192    -1.666062152    -0.722770601
 H       -2.453043813    -1.643739907    -2.477008793
 H       -2.696754915    -0.135161057    -1.608361931
 H        0.901416805    -0.132355433    -2.955939861
 H       -0.621501152     0.776628821    -2.979057511
 H       -0.525076469    -0.814747453    -3.721558488
 H       -0.462434455    -2.979234977     0.751287111
 H       -0.640235600    -2.868205283     2.495928809
 H        0.905447205    -2.471610209     1.759365368
 H       -0.644686120     0.847184490     2.882446660
 H        0.786704774    -0.183669154     3.052047889
 H       -0.762617386    -0.704729241     3.701269964

