187   

Si        0.000000000     0.000000000     0.000000000
 C        1.865577039     0.000000000     0.000000000
 C       -0.681085155     1.709860963     0.000000000
 C        0.145048541     2.819687883    -0.202202365
 C       -0.386126654     4.109523970    -0.199428499
 C       -1.753539975     4.318814125    -0.003278154
 C       -2.580614018     3.205164033     0.196797172
 C       -2.052776788     1.917228248     0.200342757
 C       -2.353764085     5.648681332     0.007610592
 C       -1.676316136     6.796307412    -0.165586789
 C       -2.278535232     8.125431640    -0.154348182
 C       -3.646787787     8.330519113     0.042185674
 C       -4.181109803     9.618659756     0.045543203
 C       -3.354055112    10.731255294    -0.133463694
 C       -1.980965622    10.529444318    -0.327936746
 C       -1.452318288     9.241680103    -0.342147786
Si       -4.019330380    12.449026326    -0.135657759
 C       -2.777127118    13.528532484     0.667980253
 C       -2.299623601    14.680977224     0.180062614
 C       -1.304323989    15.517779917     0.854369919
 C       -0.886108014    16.705009110     0.234843441
 C        0.052088427    17.532928302     0.828188586
 C        0.670972602    17.168591948     2.043334863
 C        0.254327560    15.974507366     2.660655392
 C       -0.735576578    15.185113822     2.085383905
 N        1.628270176    18.027852086     2.635655011
 C        2.514698134    18.714675978     1.663149636
 C        2.339597703    17.477903108     3.801623943
 C        3.485759131    19.736954558     2.277597187
 C        2.805612459    20.863102290     3.083644949
 N        1.903703618    21.757979386     2.332076964
 C        0.620618920    21.215422019     2.061968314
 C       -0.125830104    20.740896062     3.161587244
 C       -1.382196499    20.201067580     2.964882305
 C       -1.966815811    20.182895103     1.687150033
 C       -1.243954976    20.690138768     0.609024831
 C        0.037337614    21.208219118     0.787155480
 C        2.571327481    22.443106113     1.214077209
 C       -3.298225081    19.594764676     1.560438463
 C       -3.996952447    19.496804607     0.421414986
Si       -5.660614197    18.734758747     0.401277816
 C       -5.724189026    17.463499116     1.735136275
 C       -4.560447876    16.737368242     2.028010976
 C       -4.563580491    15.768997965     3.026362916
 C       -5.726349596    15.506248109     3.763119569
 C       -6.885661586    16.227577560     3.467392423
 C       -6.888308135    17.191651442     2.458292439
 C       -5.675038530    14.480578542     4.798641310
 C       -6.710748509    14.115792538     5.572789116
 C       -6.645225161    13.087377468     6.605662767
 C       -5.475058680    12.376887120     6.886058046
 C       -5.454719863    11.401073486     7.882211289
 C       -6.609114138    11.109068601     8.615311937
 C       -7.784655868    11.818592461     8.334418073
 C       -7.800442431    12.795878383     7.343140346
Si       -6.598619601     9.824121935     9.933147122
 C       -5.046298122     8.791443763     9.871180723
 C       -6.708424050    10.659785197    11.639844408
 C       -8.131757306     8.720662889     9.698065995
 C       -6.999297672    20.055686485     0.660161055
 C       -5.935475598    17.889300624    -1.278702923
 C       -4.327200811    12.984530571    -1.935889336
 C       -5.682453112    12.498441642     0.781945974
 C       -0.601533542    -0.929290765    -1.548937067
 C       -0.661013999    -0.898567228     1.542294225
 H        1.221798735     2.719038558    -0.363612361
 H        0.279105969     4.956877607    -0.355033673
 H       -3.648514535     3.346120161     0.352628944
 H       -2.746364051     1.087950734     0.365854661
 H       -3.435250405     5.660735778     0.172002783
 H       -0.594937189     6.785257781    -0.330289704
 H       -4.310251310     7.481113727     0.192762817
 H       -5.259417665     9.715178500     0.199915549
 H       -1.287226874    11.364793671    -0.470715392
 H       -0.384249422     9.103420483    -0.497720837
 H       -2.434328800    13.139750308     1.641256773
 H       -2.626070250    15.096649976    -0.782855427
 H       -1.324226326    17.000101134    -0.719477773
 H        0.297144340    18.480340694     0.351352262
 H        0.690121624    15.652727398     3.600637873
 H       -1.050133829    14.277012244     2.601785106
 H        2.994593256    18.245211894     4.244321069
 H        2.949475290    16.590639046     3.568470701
 H        1.603208209    17.215595231     4.583924810
 H        3.499183228    22.913678358     1.581152768
 H        1.918019536    23.257198851     0.850935671
 H        2.824153749    21.788186470     0.365892966
 H        0.298351019    20.779625739     4.162290882
 H       -1.930259927    19.794933989     3.816308253
 H       -1.679979223    20.685612376    -0.389636623
 H        0.575150227    21.589473548    -0.073662999
 H       -3.682871051    19.221072440     2.524175531
 H       -3.615092845    19.877931939    -0.532954718
 H       -3.618142191    16.891147498     1.483108403
 H       -3.648978944    15.212249526     3.229523977
 H       -7.801703365    16.039769088     4.023037657
 H       -7.826092170    17.718662316     2.267269199
 H       -4.695369893    14.007096180     4.923294122
 H       -7.688946329    14.589907263     5.456970077
 H       -4.563872252    12.580823721     6.326171717
 H       -4.509757554    10.879011604     8.056502062
 H       -8.717369273    11.631671819     8.873941300
 H       -8.722495060    13.336982141     7.140029897
 H        3.098934412    17.971870456     1.073214332
 H        1.857737168    19.261650673     0.941719282
 H        4.221742477    19.227403792     2.928119112
 H        4.082651937    20.177705861     1.454264296
 H        2.234069689    20.411550985     3.928327528
 H        3.589334777    21.507243289     3.545547929
 H        2.263247560    -1.029904892     0.037192107
 H        2.262739827     0.540453456     0.878323763
 H        2.273749588     0.481692217    -0.905824069
 H       -5.069318297     7.991387866    10.632452770
 H       -4.142913176     9.399136909    10.054549735
 H       -4.932561551     8.306664439     8.884365578
 H       -6.636527250     9.822818092    12.393285238
 C       -5.543798776    11.634109508    11.895243645
 C       -8.034486322    11.403246016    11.880469921
 H       -9.023616354     9.405751726     9.796334256
 C       -8.184946646     8.077111150     8.300555915
 C       -8.264984454     7.618055951    10.763433892
 H       -7.987007992    19.511111032     0.626115276
 C       -6.881761485    20.748531101     2.029955767
 C       -7.013712475    21.130784145    -0.441572073
 H       -5.921507549    18.711489020    -2.050090126
 C       -4.810844922    16.894185342    -1.616698102
 C       -7.289149197    17.164091755    -1.375206385
 H       -4.641138140    14.068039823    -1.886217062
 C       -3.063444738    12.891019334    -2.809823718
 C       -5.457917485    12.194276875    -2.618003119
 H       -6.317427419    11.698434341     0.298950059
 C       -5.542231366    12.157403628     2.274826252
 C       -6.428641311    13.834170004     0.635345660
 H       -0.085612788    -1.932500296    -1.519083762
 C       -2.120255666    -1.177189408    -1.575821832
 C       -0.194976807    -0.221998247    -2.854856183
 H       -1.785813280    -0.890289748     1.445353969
 C       -0.206948488    -2.365784785     1.640668595
 C       -0.296696117    -0.171611565     2.849517117
 H       -4.555929179    11.160618450    11.827671455
 H       -5.616169091    12.050093712    12.910380702
 H       -5.548229912    12.493759452    11.209649643
 H       -8.918057511    10.758365489    11.794290830
 H       -8.172589311    12.258258180    11.203733655
 H       -8.054178893    11.814730750    12.900228823
 H       -8.149166232     8.811432973     7.482986616
 H       -9.126849993     7.524392495     8.175443855
 H       -7.376866261     7.353371613     8.130089501
 H       -8.303385377     8.006745443    11.789231938
 H       -7.455792612     6.877250218    10.716439054
 H       -9.200550194     7.060453677    10.611146781
 H       -6.918257611    20.050138668     2.877650138
 H       -7.715878540    21.449552008     2.172152149
 H       -5.960201767    21.340477883     2.130615800
 H       -7.174036080    20.723047463    -1.447484768
 H       -6.092785638    21.730186089    -0.464951018
 H       -7.835846745    21.839152304    -0.264185583
 H       -3.815858514    17.358366550    -1.650182936
 H       -4.981074135    16.452408329    -2.608187534
 H       -4.764740239    16.056147301    -0.904041888
 H       -8.150878854    17.826764132    -1.226612058
 H       -7.380702105    16.333260340    -0.659975448
 H       -7.410901865    16.723931616    -2.375219155
 H       -2.213108728    13.464603684    -2.417012212
 H       -3.267926363    13.288263026    -3.813662759
 H       -2.722760950    11.855545285    -2.953540623
 H       -6.426373304    12.293226667    -2.110566919
 H       -5.236403041    11.121633540    -2.708720686
 H       -5.609608100    12.562265591    -3.642729124
 H       -5.069964463    11.184197487     2.462631078
 H       -6.534773587    12.113259459     2.747320893
 H       -4.977838697    12.918952697     2.831981393
 H       -6.647740119    14.103313893    -0.404871523
 H       -5.889509012    14.679693861     1.091924649
 H       -7.396835169    13.784392906     1.153773968
 H       -2.485568789    -1.743396495    -0.709852021
 H       -2.387677438    -1.769089700    -2.463383314
 H       -2.702745789    -0.247617685    -1.642737766
 H        0.888929298    -0.082571553    -2.956828513
 H       -0.669216504     0.763144672    -2.972256235
 H       -0.510449379    -0.820240827    -3.721588282
 H       -0.496509509    -2.969665015     0.770993834
 H       -0.671286925    -2.844449150     2.515133729
 H        0.877910653    -2.470297129     1.774240218
 H       -0.641679522     0.872071179     2.875704689
 H        0.782248623    -0.168599409     3.053081354
 H       -0.771686999    -0.673042397     3.704732715

