187   

Si        0.000000000     0.000000000     0.000000000
 C        1.865001569     0.000000000     0.000000000
 C       -0.655484052     1.720180965     0.000000000
 C        0.021209740     2.710558793     0.720442866
 C       -0.451097866     4.020798209     0.738873586
 C       -1.601250911     4.376810480     0.028988414
 C       -2.278886847     3.384854603    -0.690154661
 C       -1.817087046     2.070217800    -0.698512083
 C       -2.120416620     5.740415076     0.028845168
 C       -1.553116922     6.758998382     0.696955984
 C       -2.047717695     8.130140994     0.716006144
 C       -3.190874162     8.535403683     0.024129600
 C       -3.622821226     9.861890849     0.075123856
 C       -2.931604581    10.801818469     0.842243361
 C       -1.789300920    10.394162368     1.548315747
 C       -1.353598742     9.075419558     1.484447169
Si       -3.430361679    12.570506409     0.966811647
 C       -3.420277352    13.019827117     2.741785485
 C       -3.682382673    12.108841065     3.689247384
 C       -3.697578652    12.372216417     5.126744265
 C       -3.991181267    11.307173106     5.993117840
 C       -4.021644673    11.489506967     7.363471213
 C       -3.684652431    12.742528968     7.923068684
 C       -3.387998668    13.809256983     7.055348994
 C       -3.427998839    13.625517823     5.677187934
 N       -3.725617242    12.894958726     9.319932105
 C       -3.205783176    11.773932395    10.133993114
 C       -3.381309467    14.221169293     9.856165689
 C       -1.960010013    11.047469188     9.598469366
 C       -0.692439889    11.920576678     9.534668110
 N        0.094188048    11.747440971     8.294655435
 C        0.340023284    10.414662244     7.898420490
 C        0.723283834     9.473452102     8.877412815
 C        0.972105304     8.157950281     8.523379049
 C        0.896388246     7.739691307     7.186066325
 C        0.540951492     8.679031962     6.215361534
 C        0.267202699     9.998433539     6.557289662
 C       -0.290011255    12.681734705     7.224235654
 C        1.170114538     6.336089960     6.873513307
 C        1.131401037     5.811431430     5.641080807
Si        1.477290118     4.053579784     5.273990921
 C        2.671499036     3.314817508     6.463170022
 C        3.656392005     4.113629687     7.054746524
 C        4.566383005     3.564859831     7.956988652
 C        4.523618065     2.204713934     8.276197977
 C        3.543530836     1.404651294     7.674677804
 C        2.629696279     1.950827291     6.776987016
 C        5.455334604     1.587472647     9.214427420
 C        6.438045571     2.241197510     9.857042333
 C        7.370678570     1.625962587    10.795499648
 C        7.327535369     0.267838458    11.120814632
 C        8.239499202    -0.278606499    12.023806596
 C        9.211302139     0.525242198    12.627837935
 C        9.255765191     1.888245771    12.304214738
 C        8.348274348     2.429418902    11.398008678
Si       10.422618761    -0.178893014    13.821634902
 C        9.949111488    -1.906597525    14.342088699
 C       12.148038621    -0.235941122    13.019610344
 C       10.496407698     0.968552686    15.338820223
 C       -0.146274642     3.063085739     5.264997954
 C        2.260431269     3.945339517     3.540986319
 C       -2.198136167    13.664927233     0.021467100
 C       -5.167768948    12.846161341     0.246560249
 C       -0.656779884    -0.949782228    -1.510861058
 C       -0.632660989    -0.863786978     1.575751911
 H        0.935363173     2.495326716     1.284263487
 H        0.096774813     4.776489414     1.301872342
 H       -3.178022006     3.639207902    -1.247621531
 H       -2.391510530     1.337849434    -1.271724482
 H       -3.024915887     5.892157196    -0.564667767
 H       -0.646041608     6.596448565     1.289719635
 H       -3.752448955     7.817571731    -0.570357467
 H       -4.514476739    10.124819360    -0.499747644
 H       -1.215254394    11.087188458     2.174175610
 H       -0.465423815     8.776381220     2.039021207
 H       -3.209880842    14.069151626     2.981971099
 H       -3.900031682    11.054955374     3.451110629
 H       -4.215637474    10.321578075     5.580051285
 H       -4.315544653    10.666763739     8.010687518
 H       -3.135904989    14.789592072     7.444449430
 H       -3.223554794    14.473980379     5.023135472
 H       -3.554075708    14.235871762    10.946008318
 H       -4.062741460    14.975657230     9.420526796
 H       -2.341845202    14.529145990     9.661385770
 H       -0.395938657    13.698451148     7.635890322
 H       -1.237873910    12.415738950     6.722244474
 H        0.516792423    12.721971803     6.470681852
 H        0.822848655     9.780683723     9.914418632
 H        1.246653577     7.440256368     9.297358555
 H        0.467581769     8.379088880     5.168987824
 H       -0.023994174    10.692107065     5.773420474
 H        1.421007063     5.740379006     7.763299885
 H        0.864332657     6.424534756     4.767076771
 H        3.743805950     5.183836398     6.837413174
 H        5.317917529     4.209134136     8.410133348
 H        3.493628525     0.343197650     7.909052077
 H        1.887486997     1.277396210     6.339765260
 H        5.303000159     0.515986683     9.372636362
 H        6.589872735     3.312974919     9.697795071
 H        6.578014583    -0.378578145    10.668142921
 H        8.157451896    -1.347970144    12.236927265
 H        9.992693417     2.565207408    12.745797172
 H        8.399939274     3.489718857    11.157650079
 H       -3.010898114    12.134212067    11.167790467
 H       -4.042670857    11.036652671    10.220342634
 H       -1.768193827    10.156824032    10.228656504
 H       -2.166364218    10.626212166     8.591738860
 H       -0.947459963    12.996075847     9.644770532
 H       -0.018062690    11.683974492    10.389833884
 H        2.262905114    -1.029794494    -0.035693831
 H        2.279075658     0.486190755     0.901068778
 H        2.258280486     0.538664868    -0.881625849
 H       10.659353581    -2.306771978    15.087541528
 H        9.938641696    -2.603384375    13.485745400
 H        8.943903079    -1.920550990    14.801162384
 H       12.821090348    -0.727640853    13.780083838
 C       12.173369954    -1.087624098    11.737122057
 C       12.727712231     1.153406381    12.698747530
 H       10.831078321     1.974210751    14.950064175
 C        9.120085168     1.155125192    16.002806589
 C       11.510080436     0.514181644    16.404024103
 H        0.130608027     2.013232292     4.955471191
 C       -0.788831599     2.995347959     6.662438332
 C       -1.188319880     3.590325917     4.264235508
 H        1.440511188     4.202633926     2.810271760
 C        3.405205018     4.955264676     3.345887528
 C        2.782144651     2.535992857     3.210231925
 H       -2.571264851    14.723279014     0.142383220
 C       -0.772102449    13.596595142     0.597284389
 C       -2.143794670    13.345164473    -1.482810950
 H       -5.131533044    12.450804793    -0.809882198
 C       -6.253327012    12.069935246     1.014277944
 C       -5.573725823    14.329810499     0.182887199
 H       -1.782717786    -0.909150734    -1.439050764
 C       -0.242946702    -0.300808402    -2.844345360
 C       -0.243085978    -2.432611001    -1.529932831
 H       -0.217344560    -1.911781094     1.541474997
 C       -0.132948438    -0.194159913     2.869095836
 C       -2.168048169    -0.958149568     1.631370835
 H       11.849444704    -2.124403155    11.894449395
 H       13.197943076    -1.142795292    11.342028719
 H       11.555695338    -0.665004294    10.931544760
 H       12.802320588     1.809295646    13.575255364
 H       12.154873214     1.685325590    11.926062322
 H       13.749651812     1.051235596    12.305274773
 H        8.353258750     1.534486097    15.312205202
 H        9.190719330     1.890676804    16.816781030
 H        8.731854915     0.232040687    16.453174058
 H       12.534126860     0.423759771    16.019334798
 H       11.241726914    -0.443506467    16.869354269
 H       11.552390361     1.250641956    17.219740326
 H       -0.125709469     2.576346417     7.431382966
 H       -1.678153980     2.349968207     6.638382569
 H       -1.131018047     3.976650741     7.021798106
 H       -0.847645421     3.559246562     3.220099632
 H       -1.515060105     4.616806872     4.480316275
 H       -2.094336665     2.968120150     4.299834503
 H        3.100740691     5.998402812     3.505105520
 H        3.787339589     4.897888132     2.316614990
 H        4.264826851     4.759753180     4.002148281
 H        2.009747777     1.757547851     3.268424226
 H        3.610928016     2.225053419     3.863092402
 H        3.179006831     2.510823839     2.184810768
 H       -0.719931351    13.836759584     1.667784347
 H       -0.125821356    14.324385328     0.085978001
 H       -0.300853476    12.614213210     0.450916328
 H       -3.112227554    13.454882804    -1.987744358
 H       -1.772322215    12.331668387    -1.691897892
 H       -1.453325219    14.034594845    -1.989929951
 H       -6.065806037    10.989130223     1.070829829
 H       -7.225811084    12.188393025     0.516264480
 H       -6.387467444    12.432883009     2.044077996
 H       -4.898407729    14.940825963    -0.429432686
 H       -5.643904594    14.797258573     1.174788740
 H       -6.570168525    14.426766416    -0.272256256
 H       -0.538442652     0.754472484    -2.927629446
 H       -0.725310942    -0.822400615    -3.683346355
 H        0.838517150    -0.355004702    -3.028652476
 H       -0.574731131    -2.988208649    -0.643248435
 H        0.841466644    -2.574168137    -1.627349528
 H       -0.697157355    -2.937466657    -2.395107911
 H        0.961279976    -0.186929294     2.957474491
 H       -0.507680073    -0.742866467     3.745205659
 H       -0.491605313     0.840613272     2.980293760
 H       -2.603065868    -1.503547674     0.784366222
 H       -2.655125037     0.026373716     1.680479547
 H       -2.479700484    -1.500600740     2.535691154

