187   

Si        0.000000000     0.000000000     0.000000000
 C        1.865509343     0.000000000     0.000000000
 C       -0.678243859     1.711269276     0.000000000
 C        0.145736343     2.816681668     0.233396977
 C       -0.381746949     4.107974953     0.230494987
 C       -1.743248665     4.323255464     0.002168525
 C       -2.568246436     3.214150461    -0.228701170
 C       -2.044148887     1.924599384    -0.230871472
 C       -2.339000297     5.655197282    -0.010067560
 C       -1.661966655     6.798363222     0.192028664
 C       -2.258336881     8.130091349     0.179666775
 C       -1.432856413     9.239711064     0.405944262
 C       -1.956939149    10.529744735     0.403561417
 C       -3.324676034    10.738611400     0.187477830
 C       -4.151602550     9.632848420    -0.036872765
 C       -3.621202024     8.343317127    -0.044996346
Si       -4.029982512    12.437429235     0.181792144
 C       -5.818608027    12.364423609     0.548709420
 C       -6.790043780    12.956721544    -0.157964752
 C       -8.213546637    12.871798558     0.172500973
 C       -9.140863008    13.535705089    -0.643299402
 C      -10.498744504    13.487116973    -0.374544632
 C      -10.978392376    12.803998335     0.764799501
 C      -10.047430121    12.137549098     1.585087885
 C       -8.694131960    12.157444115     1.273056223
 N      -12.356019190    12.760484183     1.028396815
 C      -13.180342838    13.894086176     0.575290971
 C      -12.777715956    12.183993481     2.313277462
 C      -12.750594058    15.271871502     1.107335282
 C      -13.254733237    15.580727317     2.527441197
 N      -14.658505446    16.020712417     2.617143617
 C      -15.046778866    17.120509931     1.834814802
 C      -14.123093336    18.157906435     1.578572876
 C      -14.490102000    19.249285830     0.809063290
 C      -15.793785878    19.379944139     0.308459314
 C      -16.714902466    18.367954369     0.589264343
 C      -16.359126257    17.256926396     1.343760454
 C      -15.626305093    14.923819210     2.762336183
 C      -16.126667228    20.554044000    -0.499288960
 C      -17.335371579    20.785636038    -1.029255789
Si      -17.749953870    22.252938070    -2.038256061
 C      -16.751536514    23.721639701    -1.559101195
 C      -16.380905089    23.902724700    -0.219877641
 C      -15.625379617    25.008785327     0.159740909
 C      -15.232706810    25.967051100    -0.784225683
 C      -15.611141882    25.787969224    -2.117538575
 C      -16.364024308    24.678927444    -2.501973706
 C      -14.441436626    27.109145186    -0.338141273
 C      -13.998817098    28.092630284    -1.139889941
 C      -13.207550740    29.235217249    -0.695328073
 C      -12.827602130    29.417135937     0.636848479
 C      -12.070461175    30.525054079     1.017674830
 C      -11.681284261    31.479453993     0.072678999
 C      -12.061402931    31.299363400    -1.264273966
 C      -12.812536523    30.190041518    -1.642124339
Si      -10.682019420    32.947297193     0.558612125
 C      -10.633440786    33.162046759     2.410943264
 C       -8.900784533    32.740746761    -0.080004957
 C      -11.444953345    34.485749926    -0.262698090
 C      -17.468679988    21.834999307    -3.872980883
 C      -19.591115803    22.656613441    -1.780185902
 C       -3.180752778    13.486393645     1.523562257
 C       -3.702729026    13.234986473    -1.513294412
 C       -0.659047849    -0.898250545    -1.543392318
 C       -0.607013646    -0.928252602     1.547044005
 H        1.218055761     2.711392434     0.419780941
 H        0.281932694     4.951707786     0.410647558
 H       -3.631576817     3.359751916    -0.409692864
 H       -2.735896596     1.098889644    -0.420219107
 H       -3.415941098     5.672737647    -0.201923161
 H       -0.585114012     6.781001982     0.383638457
 H       -0.369063798     9.094808673     0.583366162
 H       -1.264593533    11.357288513     0.580324755
 H       -5.227275261     9.738850084    -0.213280451
 H       -4.283495045     7.498746959    -0.226143276
 H       -6.052333338    11.772603608     1.449556999
 H       -6.590744362    13.557963232    -1.054800363
 H       -8.791563219    14.091715415    -1.514358861
 H      -11.191467898    13.981853155    -1.049388879
 H      -10.371333590    11.592055607     2.464924034
 H       -7.997086955    11.616204733     1.915528513
 H      -13.875413065    12.222976320     2.406897401
 H      -12.332488540    12.685091878     3.188705505
 H      -12.494882223    11.114270169     2.337103889
 H      -15.205775129    14.128104290     3.399102021
 H      -15.938971058    14.478599527     1.803532936
 H      -16.525142278    15.305023964     3.283539456
 H      -13.115764150    18.105174559     1.982107999
 H      -13.753673024    20.028040621     0.603730457
 H      -17.736358334    18.444248634     0.213466679
 H      -17.107278821    16.495451327     1.535160332
 H      -15.280797876    21.245158555    -0.625971139
 H      -18.163768490    20.074140630    -0.894400750
 H      -16.663224439    23.188431728     0.561204586
 H      -15.340484429    25.129183392     1.203330016
 H      -15.319824646    26.517600373    -2.870679688
 H      -16.629676633    24.594047570    -3.559129140
 H      -14.218572326    27.121197205     0.732821549
 H      -14.222009443    28.080313674    -2.210757682
 H      -13.120969323    28.690672873     1.392455990
 H      -11.803105900    30.612810535     2.074375849
 H      -11.786501712    32.012904014    -2.046264254
 H      -13.096826204    30.066626219    -2.685381456
 H      -13.152914263    13.900328432    -0.541661950
 H      -14.241569342    13.689701805     0.837092236
 H      -11.643820574    15.350238095     1.091502845
 H      -13.103488096    16.056566205     0.406518082
 H      -13.113675058    14.698424022     3.189104679
 H      -12.626017456    16.387540698     2.977444782
 H        2.263372105    -1.029918315    -0.035612389
 H        2.274473783     0.483317555     0.904565319
 H        2.261858703     0.538936043    -0.879689619
 H      -10.066540274    34.067560822     2.692080782
 H      -10.154409743    32.301636298     2.910202373
 H      -11.653030611    33.267597831     2.824214292
 H       -8.333899477    33.638139097     0.302934759
 C       -8.219797314    31.474835788     0.471969492
 C       -8.792345528    32.728788140    -1.615281829
 H      -11.393721018    34.299716469    -1.375001723
 C      -12.924772139    34.681698370     0.113644273
 C      -10.675588105    35.785433196     0.033271462
 H      -17.781723004    22.749774959    -4.454421605
 C      -15.988799046    21.550540571    -4.186650729
 C      -18.318898525    20.648901688    -4.362141091
 H      -20.159760729    21.734352119    -2.094205957
 C      -19.923426802    22.943780147    -0.304896767
 C      -20.077775636    23.835091405    -2.641251743
 H       -2.089479683    13.530944133     1.240353335
 C       -3.715164223    14.928044023     1.586846892
 C       -3.283204875    12.850637124     2.921460590
 H       -4.237196455    14.228707649    -1.497582618
 C       -2.211068501    13.501212910    -1.783761321
 C       -4.273729760    12.400293421    -2.674235785
 H       -1.783833037    -0.893323992    -1.446683613
 C       -0.296503390    -0.168504615    -2.849528199
 C       -0.200928993    -2.364031203    -1.643884273
 H       -0.101374217    -1.936541274     1.513711281
 C       -0.191970080    -0.229041402     2.854668017
 C       -2.128307389    -1.160219983     1.574244045
 H       -8.179121665    31.443703454     1.568355340
 H       -7.177804876    31.425680884     0.124625262
 H       -8.701605307    30.547345508     0.130490817
 H       -9.182277349    33.639430506    -2.087232913
 H       -9.299687001    31.867358859    -2.071963432
 H       -7.736980289    32.656020180    -1.916229744
 H      -13.551112014    33.808753975    -0.119801235
 H      -13.349371649    35.523639450    -0.451472383
 H      -13.069987915    34.918022927     1.176089900
 H       -9.622798723    35.747440725    -0.274996449
 H      -10.703660050    36.067750330     1.094054723
 H      -11.127182723    36.622439509    -0.519007422
 H      -15.317627644    22.377849158    -3.916997344
 H      -15.855984377    21.385055083    -5.264932407
 H      -15.613245719    20.645746542    -3.686899991
 H      -19.398307090    20.808287694    -4.244750832
 H      -18.062402650    19.704468719    -3.862105724
 H      -18.149032537    20.483026782    -5.435817334
 H      -19.657202215    22.119496628     0.370835422
 H      -21.004441530    23.103366195    -0.185887883
 H      -19.435631524    23.853880702     0.073342914
 H      -19.961018208    23.665037761    -3.719099499
 H      -19.574854896    24.781471647    -2.395265316
 H      -21.150783344    24.006641796    -2.472382845
 H       -3.594943728    15.478463932     0.644835972
 H       -3.167087021    15.499832885     2.349255797
 H       -4.776732710    14.978925068     1.868474921
 H       -2.883103149    11.827799348     2.965438587
 H       -4.312845124    12.820999838     3.303505744
 H       -2.702282669    13.438578843     3.646247465
 H       -1.750410691    14.180208202    -1.055055111
 H       -2.087107170    13.978053891    -2.767032275
 H       -1.610386503    12.581141092    -1.813856320
 H       -5.349434976    12.196812988    -2.582603428
 H       -3.766230298    11.431754628    -2.791705579
 H       -4.140124839    12.934653975    -3.625253394
 H       -0.644639079     0.874135588    -2.874645869
 H       -0.769491732    -0.670300145    -3.705660081
 H        0.782498059    -0.161888141    -3.052782496
 H       -0.488937864    -2.970330252    -0.775401047
 H        0.884228302    -2.465378199    -1.777622089
 H       -0.663799368    -2.842412345    -2.519319915
 H        0.893125309    -0.097228922     2.954155704
 H       -0.508918695    -0.829099367     3.719671005
 H       -0.659500082     0.758565443     2.977587108
 H       -2.499443982    -1.723038847     0.708507851
 H       -2.701201852    -0.224611038     1.640435905
 H       -2.401944978    -1.748971301     2.462025708

