187   

Si        0.000000000     0.000000000     0.000000000
 C        1.865489844     0.000000000     0.000000000
 C       -0.676563839     1.711980634     0.000000000
 C        0.115941196     2.790420835    -0.406510357
 C       -0.396856774     4.086985038    -0.406375579
 C       -1.711622474     4.336805885    -0.003242195
 C       -2.505924983     3.254805801     0.398236281
 C       -1.997809632     1.958200651     0.396157103
 C       -2.284810485     5.679386924     0.010883973
 C       -1.620446239     6.788709950    -0.354695853
 C       -2.169884358     8.139867525    -0.349566722
 C       -3.477969663     8.428980404     0.046204314
 C       -3.953919291     9.741098809     0.032085585
 C       -3.133383665    10.789216695    -0.392566115
 C       -1.820689734    10.501066599    -0.794019782
 C       -1.346120695     9.193833150    -0.769002870
Si       -3.692233219    12.542732478    -0.438015452
 C       -3.086843879    13.345177212    -1.968216141
 C       -2.890201310    12.662239507    -3.103945014
 C       -2.409531162    13.241798089    -4.357869641
 C       -2.255237512    12.389253438    -5.463363139
 C       -1.805117868    12.872520753    -6.677834527
 C       -1.514458913    14.246837550    -6.833014241
 C       -1.656926838    15.100118385    -5.726230363
 C       -2.078011479    14.589968942    -4.501783217
 N       -1.060291405    14.679231565    -8.091107172
 C       -1.843692932    14.242679989    -9.261624508
 C       -0.480440313    16.022486087    -8.178426423
 C       -2.622879737    15.326165219   -10.022071461
 C       -3.789362190    15.985553893    -9.257995003
 N       -4.775126394    15.102232774    -8.626087669
 C       -5.356817039    14.056958481    -9.335766638
 C       -5.403778458    14.072166380   -10.747828220
 C       -5.986858214    13.023053606   -11.440942966
 C       -6.631113416    11.975117674   -10.770244322
 C       -6.618638873    11.981325710    -9.371300060
 C       -5.989913808    12.990368051    -8.659053902
 C       -4.647926623    14.957955265    -7.170066598
 C       -7.232124822    10.889069539   -11.544999325
 C       -7.868079845     9.845923677   -10.995424755
Si       -8.643742951     8.452744362   -11.885942729
 C       -8.069619831     6.859495484   -11.164316288
 C       -7.066981899     6.833024519   -10.189722743
 C       -6.637518315     5.621805570    -9.647909423
 C       -7.200211733     4.413079673   -10.065572712
 C       -8.204341149     4.441946612   -11.042888361
 C       -8.633734859     5.648956645   -11.587610861
 C       -6.782726391     3.122847342    -9.527080684
 C       -5.834520031     2.954848617    -8.589643831
 C       -5.418445142     1.663509190    -8.052405938
 C       -5.982002681     0.455967397    -8.474392904
 C       -5.555316643    -0.756600458    -7.935002871
 C       -4.554235345    -0.788038255    -6.957153742
 C       -3.992186578     0.420683237    -6.528795743
 C       -4.423067596     1.630710245    -7.067385382
Si       -4.010767630    -2.404223403    -6.262800262
 C       -3.952429085    -3.716807236    -7.585803824
 C       -2.298255521    -2.214409055    -5.454328092
 C       -5.246204567    -2.915906553    -4.906483787
 C      -10.532776556     8.562141799   -11.686652482
 C       -8.212227607     8.523831866   -13.737223989
 C       -5.591028326    12.645320079    -0.399219860
 C       -2.996838729    13.466875627     1.070222986
 C       -0.604672567    -0.909091492    -1.558479009
 C       -0.659805321    -0.921379851     1.528783739
 H        1.152405260     2.659609257    -0.729960782
 H        0.242499042     4.908343137    -0.725439723
 H       -3.533308920     3.426175849     0.714081033
 H       -2.665814285     1.153779303     0.716318490
 H       -3.323295601     5.734385068     0.347910143
 H       -0.580355328     6.724318729    -0.690843635
 H       -4.138197903     7.628389310     0.373813274
 H       -4.983009537     9.907377950     0.360973737
 H       -1.134011007    11.282056264    -1.139356691
 H       -0.323779471     8.989764577    -1.082255854
 H       -2.910265094    14.427107271    -1.904550076
 H       -3.071405906    11.578407737    -3.178743088
 H       -2.486025049    11.327040594    -5.362561097
 H       -1.657194423    12.191154271    -7.513000166
 H       -1.435675301    16.158198864    -5.812429891
 H       -2.165900872    15.264733120    -3.649544715
 H        0.036226552    16.129854970    -9.148826274
 H        0.288480211    16.139126576    -7.392049485
 H       -1.212877283    16.838581183    -8.075493380
 H       -4.094792281    15.804737735    -6.731713060
 H       -4.122877898    14.031586850    -6.871510832
 H       -5.656750447    14.958008687    -6.716134003
 H       -4.989220548    14.907456226   -11.301344091
 H       -5.970772281    13.034839864   -12.531260388
 H       -7.106902203    11.174418853    -8.821288290
 H       -5.992146561    12.943687462    -7.574709420
 H       -7.106426925    11.006841812   -12.628628669
 H       -7.985989720     9.771834963    -9.900631242
 H       -6.584949941     7.746707076    -9.827285015
 H       -5.854546628     5.627311980    -8.891703326
 H       -8.654989263     3.511462008   -11.382115578
 H       -9.422069571     5.609806362   -12.344413673
 H       -7.307933837     2.260481945    -9.947883522
 H       -5.308553403     3.816789860    -8.168460788
 H       -6.761070897     0.453192328    -9.234436495
 H       -6.031334820    -1.667869743    -8.307933073
 H       -3.210664782     0.459801601    -5.764519954
 H       -3.976044520     2.560226753    -6.718488319
 H       -1.111259679    13.771292088    -9.963830386
 H       -2.558334421    13.437031921    -8.968096788
 H       -1.936947465    16.124493781   -10.364516756
 H       -3.007745184    14.858200993   -10.953738159
 H       -3.374811519    16.666505761    -8.479070865
 H       -4.349783206    16.642893252    -9.970119806
 H        2.263332476    -1.029391553     0.047588793
 H        2.260730953     0.549218753     0.873967597
 H        2.276362816     0.473261649    -0.908737510
 H       -3.599422771    -4.680355248    -7.177570777
 H       -3.261592550    -3.425801963    -8.398431399
 H       -4.944027200    -3.889286225    -8.038858247
 H       -2.411937442    -1.391783181    -4.687386520
 C       -1.820003324    -3.479535913    -4.719131730
 C       -1.212330733    -1.782748655    -6.456378564
 H       -4.852883252    -3.881814074    -4.477245619
 C       -5.348516521    -1.888045357    -3.765263664
 C       -6.659089072    -3.181369709    -5.457570251
 H      -10.954421062     7.687371242   -12.261306065
 C      -10.980193756     8.425381744   -10.220298897
 C      -11.127645263     9.853260314   -12.275193825
 H       -8.464049499     9.573940380   -14.066876551
 C       -6.712855836     8.286110139   -13.995633730
 C       -9.022788733     7.549693475   -14.610223981
 H       -5.913453204    12.115540421     0.543368013
 C       -6.120347201    14.089402751    -0.336479794
 C       -6.240015003    11.931200747    -1.598767654
 H       -3.370055083    14.528196238     0.983355657
 C       -3.493040400    12.893030177     2.408918626
 C       -1.458008517    13.502500401     1.081468542
 H       -0.082992223    -1.909552207    -1.547443179
 C       -2.122064912    -1.162822842    -1.573437454
 C       -0.212164466    -0.179408596    -2.855890032
 H       -1.784486502    -0.920263158     1.430679047
 C       -0.197091753    -2.387205969     1.608782183
 C       -0.301412489    -0.209430446     2.845724533
 H       -2.511086265    -3.817666687    -3.936251354
 H       -0.860730344    -3.282543847    -4.217441494
 H       -1.643893134    -4.326243617    -5.395567472
 H       -1.456418749    -0.854933456    -6.992976906
 H       -0.998029559    -2.551253459    -7.211300005
 H       -0.264507104    -1.595418266    -5.931640442
 H       -4.394846098    -1.705951437    -3.252943571
 H       -6.046878583    -2.247776284    -2.996107259
 H       -5.737037743    -0.915457836    -4.101023640
 H       -6.688145388    -3.967924725    -6.222189419
 H       -7.127584224    -2.282063399    -5.882633018
 H       -7.321890992    -3.517541486    -4.647213399
 H      -10.630412041     7.498782213    -9.743581301
 H      -12.077676237     8.403898444   -10.162087089
 H      -10.654460975     9.266368821    -9.592877291
 H      -10.920836787     9.979863558   -13.345588082
 H      -10.776824128    10.758944267   -11.759537741
 H      -12.222026983     9.845089538   -12.171888979
 H       -6.057185570     8.972958899   -13.442675798
 H       -6.484968073     8.430527410   -15.060780905
 H       -6.395738043     7.262691607   -13.748093869
 H      -10.107639866     7.697931721   -14.538005854
 H       -8.809690379     6.495571505   -14.385772043
 H       -8.764256938     7.692739655   -15.669633700
 H       -5.765197402    14.646631848     0.539796605
 H       -7.218107336    14.084066138    -0.270792555
 H       -5.870032626    14.675439485    -1.231625688
 H       -5.958811788    10.872454974    -1.683438424
 H       -6.004573623    12.411660702    -2.559812467
 H       -7.334743721    11.951875111    -1.503292698
 H       -4.585076494    12.916971987     2.515984981
 H       -3.089766116    13.483715844     3.244284625
 H       -3.163478890    11.857981851     2.579569513
 H       -1.024819581    13.948748320     0.176084558
 H       -1.009262271    12.506815849     1.209847775
 H       -1.101413971    14.109866330     1.925582896
 H       -2.477355671    -1.741186919    -0.711499086
 H       -2.391103613    -1.749800931    -2.465758191
 H       -2.709043285    -0.234761623    -1.621545332
 H        0.868174424    -0.016834482    -2.956935576
 H       -0.706616432     0.796921954    -2.962467917
 H       -0.514531465    -0.776552926    -3.729942621
 H       -0.479444802    -2.980908298     0.729745385
 H       -0.661865904    -2.880502384     2.474870405
 H        0.887825049    -2.487015690     1.745670091
 H       -0.648707972     0.833019936     2.884373742
 H        0.777162952    -0.206008346     3.052127532
 H       -0.776730928    -0.723006739     3.693593016

