187   

Si        0.000000000     0.000000000     0.000000000
 C        1.865737753     0.000000000     0.000000000
 C       -0.676686771     1.709856145     0.000000000
 C        0.164184063     2.823125699    -0.081983198
 C       -0.367562218     4.113000704    -0.080622427
 C       -1.748097659     4.312986982    -0.031796698
 C       -2.590512157     3.195098722     0.042759561
 C       -2.062801021     1.908692524     0.067776658
 C       -2.353664590     5.638363190    -0.028181926
 C       -1.675887755     6.797395299    -0.070236875
 C       -2.309205021     8.111477056    -0.065420367
 C       -1.499395390     9.253768535    -0.112179269
 C       -2.064678141    10.526266715    -0.109312577
 C       -3.454706749    10.684536327    -0.042899686
 C       -4.265008902     9.545960904     0.011441882
 C       -3.695957087     8.273624213    -0.000415158
Si       -4.203685947    12.364251447    -0.038975555
 C       -6.001537347    12.225872379    -0.333033773
 C       -6.971647494    12.795842589     0.393669279
 C       -8.399105218    12.645783268     0.104995470
 C       -9.335984512    13.284030967     0.927396164
 C      -10.698606246    13.169465818     0.691222248
 C      -11.175282419    12.346124071    -0.347968640
 C      -10.232014507    11.696421475    -1.170808301
 C       -8.872706012    11.868156996    -0.956732993
 N      -12.552587572    12.206787686    -0.615432038
 C      -13.495528278    12.604543183     0.449224469
 C      -12.929188640    10.946019843    -1.285691428
 C      -13.371592512    11.768902077     1.738862857
 C      -14.739989098    11.383565441     2.330663494
 N      -15.465046336    10.338632371     1.573827461
 C      -14.710020629     9.226406172     1.161905923
 C      -13.797513819     8.657534441     2.079156607
 C      -13.033568756     7.562507087     1.717739341
 C      -13.164100970     6.974473788     0.449888222
 C      -14.089314747     7.517278828    -0.442980316
 C      -14.868483756     8.615193118    -0.093958344
 C      -16.465281053    10.891064903     0.648935544
 C      -12.327330988     5.818290175     0.128170974
 C      -12.353040647     5.166035720    -1.041702334
Si      -11.294334474     3.722337413    -1.415918280
 C       -9.696451392     3.804902572    -0.506290806
 C       -9.125997655     5.047356083    -0.205376006
 C       -7.916447564     5.124584170     0.482895677
 C       -7.245353865     3.963833933     0.878091871
 C       -7.813050204     2.721306310     0.567988763
 C       -9.021285593     2.640882101    -0.119907169
 C       -5.978236354     3.994965463     1.599672152
 C       -5.329432909     5.116262498     1.957284977
 C       -4.062073750     5.143643501     2.679043170
 C       -3.395713664     3.979209082     3.071180645
 C       -2.185938248     4.049160593     3.759674967
 C       -1.616299732     5.289363297     4.070375750
 C       -2.280490404     6.456783538     3.675800978
 C       -3.487681046     6.383591077     2.985776910
Si       -0.017610412     5.350097017     4.980558720
 C        0.044685596     4.043971419     6.310107563
 C        1.370202482     5.046450177     3.711996225
 C        0.238668477     7.077203924     5.736632210
 C      -12.228947560     2.129108769    -0.964685130
 C      -10.932262722     3.716716501    -3.283325157
 C       -3.850944073    13.203026679     1.631312005
 C       -3.426663194    13.398692165    -1.432811509
 C       -0.600981178    -0.957037741    -1.529899651
 C       -0.666319657    -0.846934351     1.570227181
 H        1.251335127     2.727103428    -0.141524229
 H        0.307433373     4.965532560    -0.127162165
 H       -3.670738941     3.336716036     0.087969933
 H       -2.766438525     1.074957804     0.141266968
 H       -3.449466547     5.635307153     0.017098438
 H       -0.584469778     6.808960559    -0.109910466
 H       -0.417603216     9.148148588    -0.156914516
 H       -1.385703526    11.381541444    -0.158710731
 H       -5.356519303     9.611597699     0.067961932
 H       -4.346491184     7.400644645     0.036067338
 H       -6.244783579    11.613604804    -1.218481667
 H       -6.769407142    13.420245232     1.273008123
 H       -8.992736052    13.896772166     1.761365908
 H      -11.389288502    13.713990762     1.326722857
 H      -10.557323430    11.070693188    -1.996980131
 H       -8.166488597    11.370209895    -1.623459614
 H      -14.010001921    10.751393920    -1.216019160
 H      -12.420760109    10.059539714    -0.865931538
 H      -12.680832210    11.030346200    -2.359161904
 H      -17.228782335    11.425365239     1.246059704
 H      -16.997712228    10.082612230     0.120120078
 H      -16.055213336    11.599324613    -0.091530786
 H      -13.699054285     9.077973945     3.076612226
 H      -12.324608411     7.145434525     2.435584099
 H      -14.216772583     7.072636558    -1.431053237
 H      -15.586930385     8.998197987    -0.811254172
 H      -11.657957799     5.530436467     0.952743053
 H      -13.037978717     5.462020872    -1.849347577
 H       -9.603764734     5.990206085    -0.494594185
 H       -7.497172606     6.103915180     0.709779704
 H       -7.305931955     1.805376217     0.864963050
 H       -9.414015787     1.643839601    -0.336083064
 H       -5.569445450     3.011441816     1.848735696
 H       -5.743336017     6.100875200     1.719091901
 H       -3.815529818     3.002263969     2.839112057
 H       -1.708869657     3.104439479     4.035333878
 H       -1.878673093     7.452903957     3.881069835
 H       -3.982933082     7.304309632     2.678641943
 H      -13.335305768    13.685273016     0.665014573
 H      -14.522602647    12.543108477     0.025580691
 H      -12.768437434    10.858793608     1.541288856
 H      -12.789503494    12.324306778     2.498121672
 H      -14.600791960    10.996427385     3.368669679
 H      -15.386955179    12.281522575     2.426522968
 H        2.263130073    -1.030268628     0.020548114
 H        2.264876982     0.526128708     0.885788526
 H        2.272149265     0.495272929    -0.899395941
 H        0.993912291     4.091695269     6.872044886
 H       -0.045540058     3.026458379     5.891555373
 H       -0.778909897     4.180897668     7.034348124
 H        2.339370159     5.134272100     4.280476285
 C        1.307641520     3.641846217     3.086978655
 C        1.375424186     6.091953541     2.581425367
 H        0.171781097     7.805689151     4.876192542
 C       -0.852605488     7.447328127     6.757844125
 C        1.618042002     7.259281361     6.396226435
 H      -11.559324765     1.275341739    -1.274182039
 C      -12.486082497     2.011924376     0.548350502
 C      -13.566050084     1.977685870    -1.711682922
 H      -11.934914861     3.655629024    -3.796428753
 C      -10.237385514     5.011182026    -3.743470169
 C      -10.090200544     2.510103571    -3.732601667
 H       -4.436746236    14.167544861     1.621951891
 C       -4.336859038    12.355717644     2.822081095
 C       -2.367596688    13.551520297     1.847982769
 H       -2.325983909    13.464526321    -1.193115498
 C       -3.572237893    12.731741393    -2.812289707
 C       -3.986766294    14.829957386    -1.504370712
 H       -0.057960423    -1.945973068    -1.497639002
 C       -2.112160332    -1.248687317    -1.540711948
 C       -0.227767323    -0.250305600    -2.846321986
 H       -1.790592798    -0.840117882     1.467193729
 C       -0.213616879    -2.309553134     1.719456596
 C       -0.308295917    -0.074893287     2.853935776
 H        1.361012521     2.830400517     3.822844816
 H        2.155908014     3.493979306     2.403939413
 H        0.400133309     3.485461566     2.480924218
 H        1.525831384     7.118511215     2.938582579
 H        0.448063769     6.078601641     1.987864855
 H        2.196414764     5.885224411     1.880874508
 H       -1.872280546     7.376946523     6.353415431
 H       -0.723575603     8.487962526     7.087496799
 H       -0.815408374     6.829408899     7.664836002
 H        2.454589162     7.100906461     5.703543003
 H        1.770594612     6.600509651     7.261118118
 H        1.721699567     8.287636926     6.771638275
 H      -11.568805280     2.053676138     1.152141485
 H      -12.961717599     1.047972575     0.777329352
 H      -13.165712538     2.789048735     0.927481970
 H      -13.458186472     1.975967747    -2.803711999
 H      -14.293738865     2.757702540    -1.447117178
 H      -14.035931541     1.018801493    -1.448963313
 H      -10.806298305     5.920535286    -3.506457409
 H      -10.109027654     5.002639959    -4.835125224
 H       -9.230390399     5.129535038    -3.317502740
 H      -10.566475389     1.543859634    -3.523291767
 H       -9.088291026     2.494834487    -3.279831129
 H       -9.932913139     2.545269046    -4.820489958
 H       -5.404227688    12.099933359     2.772369320
 H       -4.194824894    12.907959888     3.761395300
 H       -3.779150423    11.413913731     2.930062065
 H       -1.959612185    14.219880920     1.079126912
 H       -1.723195739    12.662886049     1.899643903
 H       -2.241751162    14.075316816     2.806781146
 H       -3.154830189    11.715560248    -2.850643320
 H       -3.030473966    13.314000734    -3.571184005
 H       -4.615172263    12.675962988    -3.153103532
 H       -3.840495610    15.401691854    -0.578980315
 H       -5.059002352    14.857969807    -1.746547147
 H       -3.477609436    15.394273617    -2.298690856
 H       -2.457839659    -1.798032885    -0.656256741
 H       -2.365927573    -1.875073435    -2.408448519
 H       -2.720937983    -0.338456521    -1.634318977
 H        0.850463181    -0.079053668    -2.959980820
 H       -0.732060079     0.719494658    -2.967621672
 H       -0.533243686    -0.865538121    -3.704604881
 H       -0.496225490    -2.941726238     0.867827361
 H       -0.683965403    -2.760383528     2.605281552
 H        0.870320879    -2.409719631     1.863725836
 H       -0.640369989     0.973874447     2.835644267
 H        0.768284946    -0.077987953     3.068873853
 H       -0.798977926    -0.539017551     3.721013910

