187   

Si        0.000000000     0.000000000     0.000000000
 C        1.865249292     0.000000000     0.000000000
 C       -0.678319592     1.710386741     0.000000000
 C        0.106383855     2.793170673     0.409780833
 C       -0.414239304     4.086656423     0.407201677
 C       -1.728297356     4.326996341    -0.002446569
 C       -2.514974420     3.240785331    -0.407910337
 C       -1.999068114     1.947857295    -0.403196906
 C       -2.313997077     5.662391088    -0.021313186
 C       -1.667271297     6.781526467     0.345239720
 C       -2.248085613     8.118571546     0.328235175
 C       -3.562990468     8.352423734    -0.082562476
 C       -4.086076315     9.643613261    -0.086275468
 C       -3.314882172    10.721056773     0.363515353
 C       -2.001174155    10.489254388     0.788428121
 C       -1.472458995     9.201206707     0.762184776
Si       -4.012485093    12.418145718     0.354855323
 C       -3.337670076    13.477493096     1.681989464
 C       -2.910109945    13.053537039     2.878739908
 C       -2.376299087    13.950027464     3.909557285
 C       -1.953517542    13.408076543     5.132815968
 C       -1.443026753    14.223852357     6.132103377
 C       -1.358035133    15.610955958     5.929380358
 C       -1.786102942    16.161123357     4.716467735
 C       -2.292192276    15.331880149     3.721091872
 N       -0.819338866    16.386978933     7.008901352
 C        0.656526789    16.370866367     7.029431644
 C       -1.383091122    17.744800052     7.117815464
 C        1.325674130    17.146432764     5.877775720
 C        2.784643758    16.707971277     5.656878512
 N        2.971745701    15.704033854     4.592125170
 C        2.479901108    14.405490712     4.832885793
 C        2.619179222    13.837156544     6.116908471
 C        2.142808230    12.562202049     6.375033906
 C        1.616993841    11.765860350     5.348935759
 C        1.519776859    12.313677682     4.066734226
 C        1.931687611    13.614254207     3.806848649
 C        2.730015752    16.258300369     3.248185841
 C        1.126192736    10.425448096     5.672469809
 C        0.606805108     9.589216025     4.765399972
Si       -0.027789736     7.905466667     5.077771821
 C       -1.694586078     7.809527971     4.309545182
 C       -2.506054977     8.951333322     4.283347874
 C       -3.771238560     8.899215946     3.706283759
 C       -4.258439272     7.704303237     3.160743802
 C       -3.449105976     6.565888304     3.196331422
 C       -2.177116620     6.616229630     3.765039696
 C       -5.589871329     7.698511867     2.566963202
 C       -6.172721090     6.627601304     2.002635189
 C       -7.505988147     6.633106768     1.411257116
 C       -8.310204644     7.775280599     1.379016059
 C       -9.579849934     7.737431995     0.803580503
 C      -10.069061325     6.555757894     0.238399411
 C       -9.262978251     5.409525913     0.266391701
 C       -7.998423058     5.448850532     0.846867519
Si      -11.742075857     6.488247542    -0.525043713
 C      -12.458650663     8.194804473    -0.759741888
 C      -11.593029740     5.600712977    -2.202469972
 C      -12.912878517     5.483960641     0.590071197
 C        1.154449718     6.635929441     4.301811627
 C       -0.190315855     7.545361476     6.936249195
 C       -3.601149268    13.227330016    -1.316499536
 C       -5.904348468    12.339630947     0.553321766
 C       -0.651655330    -0.918198653    -1.534946925
 C       -0.622202159    -0.904920438     1.554910870
 H        1.141778796     2.666977816     0.737672454
 H        0.217958336     4.912210856     0.730415636
 H       -3.541473325     3.406470366    -0.729893007
 H       -2.659527364     1.139304035    -0.727748000
 H       -3.352176166     5.704583352    -0.363303142
 H       -0.627366849     6.738709579     0.685223510
 H       -4.192032366     7.525058945    -0.407951461
 H       -5.115224935     9.764965636    -0.436257857
 H       -1.358678457    11.297018443     1.153232706
 H       -0.449652409     9.034482478     1.095754138
 H       -3.323648616    14.548688244     1.423216949
 H       -2.912503154    11.995287228     3.174952055
 H       -2.013596840    12.331559228     5.300197128
 H       -1.107879482    13.800727182     7.078256596
 H       -1.726804785    17.231591882     4.545427268
 H       -2.620247334    15.776922289     2.781713407
 H       -1.076637638    18.171137152     8.088616117
 H       -2.485151460    17.678147576     7.120837320
 H       -1.077510536    18.438505872     6.321200790
 H        3.155962167    17.272804191     3.178385541
 H        1.663427054    16.311297327     2.974358924
 H        3.259530460    15.635571390     2.503765182
 H        3.097064013    14.400063257     6.914148383
 H        2.211256620    12.163769379     7.387603124
 H        1.099022598    11.722310552     3.251003676
 H        1.805490472    14.009526740     2.803848663
 H        1.224916188    10.169297391     6.734188423
 H        0.532097554     9.881580583     3.703191936
 H       -2.173690587     9.909282660     4.696340711
 H       -4.384967378     9.798314255     3.675971704
 H       -3.802105168     5.627600272     2.771579368
 H       -1.586732718     5.696008311     3.757994496
 H       -6.113776993     8.658731207     2.610575715
 H       -5.653559311     5.666025685     1.960242083
 H       -7.950521836     8.710052073     1.806545975
 H      -10.164344072     8.661473341     0.810416989
 H       -9.593268940     4.458802272    -0.161078186
 H       -7.387664594     4.547988475     0.861075319
 H        0.982523185    16.779961345     8.010701378
 H        0.970781377    15.300843526     7.011967710
 H        0.743944725    17.000335016     4.946051000
 H        1.286861247    18.230523720     6.084252671
 H        3.408910343    17.592611311     5.389921514
 H        3.226519906    16.315740376     6.600022227
 H        2.263137336    -1.029581332    -0.043735114
 H        2.276029710     0.477100949     0.906822707
 H        2.259711183     0.546254696    -0.876238961
 H      -13.444307035     8.147576426    -1.256249211
 H      -11.799048504     8.817887197    -1.390483784
 H      -12.596231001     8.716652307     0.203462445
 H      -11.201640601     4.567381387    -1.971201795
 C      -12.936545909     5.442510512    -2.936102156
 C      -10.584996082     6.285435952    -3.143409238
 H      -13.924807762     5.535888245     0.093455081
 C      -12.522366100     4.000865769     0.720119368
 C      -13.042628313     6.085110732     2.001691751
 H        0.664222834     5.628542623     4.441413488
 C        1.359632078     6.861461429     2.793141991
 C        2.530316022     6.592847744     4.990157388
 H        0.831897437     7.719149848     7.380329826
 C       -1.183932874     8.492015632     7.635002999
 C       -0.599247252     6.091513007     7.232814033
 H       -4.077579221    14.249279103    -1.298058497
 C       -2.085253025    13.409324966    -1.514227272
 C       -4.173702764    12.454860485    -2.517378427
 H       -6.287170754    11.755651482    -0.333338287
 C       -6.329064469    11.598908911     1.834132426
 C       -6.573820859    13.725007796     0.531869408
 H       -1.776187173    -0.927304794    -1.436736648
 C       -0.299179859    -0.195466826    -2.847670132
 C       -0.176420178    -2.379440200    -1.623647355
 H       -0.137108220    -1.923158973     1.533852085
 C       -0.197861066    -0.199738751     2.856427157
 C       -2.148504079    -1.103202706     1.576539072
 H      -13.689051198     4.896924550    -2.352154093
 H      -12.792373345     4.869068426    -3.863380613
 H      -13.376968588     6.402870359    -3.235145664
 H       -9.581697777     6.385719069    -2.705192196
 H      -10.907370023     7.285035702    -3.463557954
 H      -10.461442255     5.691683710    -4.060288475
 H      -12.488255621     3.473043733    -0.241242617
 H      -13.264323967     3.470177514     1.334583344
 H      -11.553878403     3.857045555     1.219600635
 H      -13.399415693     7.123068676     2.003160413
 H      -12.099331920     6.056909298     2.566129594
 H      -13.770748888     5.509379361     2.590915026
 H        0.415280535     6.885804428     2.229781984
 H        1.957168427     6.042545071     2.368113265
 H        1.905847753     7.788696215     2.571377800
 H        2.476191497     6.347319595     6.058434409
 H        3.087699901     7.535390489     4.894616305
 H        3.158019406     5.816752900     4.529499713
 H       -0.937267684     9.555650899     7.512744775
 H       -1.192145042     8.298341950     8.716564892
 H       -2.218834953     8.351255410     7.290098592
 H        0.116223488     5.350948682     6.853118303
 H       -1.590619714     5.835436374     6.831836711
 H       -0.658935710     5.931038651     8.318917256
 H       -1.609357652    14.003001454    -0.721878576
 H       -1.888745998    13.938488604    -2.457254639
 H       -1.546750908    12.452709623    -1.581672865
 H       -5.267746579    12.369567236    -2.498947166
 H       -3.760879606    11.439538073    -2.609864897
 H       -3.922195968    12.973204637    -3.453850834
 H       -5.930129702    10.575803793     1.892290525
 H       -7.423812452    11.510263489     1.873153432
 H       -6.028749263    12.126174163     2.751089144
 H       -6.380088159    14.289736887    -0.388745944
 H       -6.277101115    14.357026478     1.380521783
 H       -7.665932084    13.615891756     0.598388526
 H       -0.656534210     0.843803649    -2.880401435
 H       -0.768680907    -0.708625356    -3.698916418
 H        0.779487244    -0.180176887    -3.052911307
 H       -0.455357005    -2.981265533    -0.749111978
 H        0.909578670    -2.469206490    -1.759004022
 H       -0.635605424    -2.870927558    -2.493717050
 H        0.889482213    -0.091284698     2.959189729
 H       -0.531665790    -0.783064570     3.726552990
 H       -0.644634413     0.799050665     2.966026595
 H       -2.523709813    -1.686246887     0.725949809
 H       -2.702177066    -0.154066749     1.605127733
 H       -2.442752916    -1.656265255     2.480436227

