187   

Si        0.000000000     0.000000000     0.000000000
 C        1.865267658     0.000000000     0.000000000
 C       -0.687362135     1.707402098     0.000000000
 C        0.129076644     2.819972989    -0.225221240
 C       -0.408815613     4.107174442    -0.221713144
 C       -1.773177469     4.310470738    -0.000171998
 C       -2.590730190     3.194129079     0.222786428
 C       -2.056407065     1.908992737     0.223853070
 C       -2.381815646     5.636376638     0.012867617
 C       -1.717818417     6.788364999    -0.181830818
 C       -2.334237121     8.111047535    -0.167223433
 C       -1.526970367     9.235294885    -0.384741535
 C       -2.072740942    10.516609734    -0.379463809
 C       -3.440240125    10.704728103    -0.144883803
 C       -4.248250185     9.583119056     0.072669442
 C       -3.700865663     8.301288099     0.056039212
Si       -4.183739019    12.386707793    -0.133040011
 C       -5.624418572    12.504855204     0.985986768
 C       -5.767853289    11.771271702     2.097654646
 C       -6.920688733    11.864665127     2.994643922
 C       -6.959326729    11.042882555     4.131742487
 C       -8.028232856    11.094159635     5.010824306
 C       -9.098332802    11.978662383     4.770792117
 C       -9.072086657    12.789453996     3.626730382
 C       -7.999251742    12.715410728     2.744730109
 N      -10.165302120    11.986539868     5.706501765
 C       -9.759286286    12.318134547     7.090743051
 C      -11.396740489    12.670112633     5.277586068
 C       -8.694605551    13.420837801     7.238906493
 C       -9.118722760    14.734421302     6.559256207
 N       -8.236184180    15.875554086     6.827338845
 C       -6.965369443    15.920346676     6.227246248
 C       -6.545261133    14.988170318     5.258990751
 C       -5.278352697    15.078378890     4.697776816
 C       -4.415389760    16.133815731     5.019484474
 C       -4.849529698    17.078783356     5.956244511
 C       -6.095957467    16.982121035     6.554332709
 C       -8.315341790    16.363478696     8.216155792
 C       -3.084436153    16.200998034     4.410362039
 C       -2.206998221    17.179433281     4.670392145
Si       -0.525986099    17.392118779     3.991598869
 C        0.653553811    17.682844794     5.373230759
 C        0.384535661    17.154987231     6.640815567
 C        1.269353701    17.367304258     7.697008355
 C        2.445837743    18.098017594     7.507456415
 C        2.715725546    18.618919854     6.235019698
 C        1.831320502    18.414157094     5.178945021
 C        3.400202834    18.344793985     8.583497586
 C        3.261052939    17.903006966     9.844975380
 C        4.214371774    18.148903044    10.921968185
 C        5.388140489    18.883936123    10.737128154
 C        6.271934214    19.094739302    11.795553114
 C        6.003563542    18.566805890    13.062255488
 C        4.827639017    17.827606707    13.249851349
 C        3.944676516    17.624047027    12.193233508
Si        7.158954641    18.835373437    14.469965035
 C        8.790797563    19.533274360    13.895466196
 C        6.379195164    20.050683964    15.710391637
 C        7.428109143    17.166032472    15.344333080
 C        0.059322651    15.849240451     3.047948305
 C       -0.542437050    18.869297262     2.794411581
 C       -2.894636141    13.619448767     0.535224578
 C       -4.702821982    12.888063831    -1.886841410
 C       -0.602327750    -0.928657467    -1.549037924
 C       -0.658445163    -0.901922930     1.541691834
 H        1.203190624     2.723304084    -0.405662448
 H        0.248668087     4.956938684    -0.395846851
 H       -3.656254273     3.330673241     0.398036352
 H       -2.742803218     1.077281908     0.406761415
 H       -3.460310311     5.641242549     0.198232044
 H       -0.640107317     6.786320837    -0.367779315
 H       -0.460771765     9.109015000    -0.562396107
 H       -1.394836753    11.354847507    -0.562493518
 H       -5.324747647     9.669529079     0.256084849
 H       -4.351814693     7.444829339     0.222996261
 H       -6.377033668    13.251953269     0.690631240
 H       -5.025310578    11.028474988     2.421820473
 H       -6.135462491    10.356384546     4.330495841
 H       -8.053224173    10.445754057     5.883309625
 H       -9.883983525    13.478147633     3.412847605
 H       -8.001014692    13.349876268     1.857165713
 H      -12.205530975    12.421817872     5.987031746
 H      -11.706544872    12.275707311     4.292866656
 H      -11.316816627    13.765462695     5.209469522
 H       -9.284310220    16.100441093     8.668953772
 H       -8.250498295    17.467251026     8.212454064
 H       -7.513661614    15.964531298     8.859083726
 H       -7.195718069    14.170949459     4.952712942
 H       -4.965641052    14.319722909     3.976688702
 H       -4.200551663    17.913277540     6.227985732
 H       -6.399777722    17.738880411     7.270504974
 H       -2.873286679    15.372662354     3.722056220
 H       -2.471326313    17.997883352     5.364757150
 H       -0.519541569    16.571708997     6.846493356
 H        1.035500213    16.953259909     8.676098458
 H        3.626037233    19.190941184     6.066824187
 H        2.092636304    18.845721057     4.209165532
 H        4.273935308    18.935635491     8.293530210
 H        2.387122697    17.311796572    10.134122665
 H        5.622692080    19.301585566     9.759734053
 H        7.172810510    19.679477906    11.590010977
 H        4.566502952    17.389623864    14.217381634
 H        3.035897232    17.048483057    12.358678539
 H      -10.664339544    12.583368368     7.678618578
 H       -9.366827701    11.373327247     7.539214359
 H       -8.496838490    13.593677365     8.312913796
 H       -7.728146160    13.076473272     6.817272825
 H       -9.175813645    14.598024046     5.452816594
 H      -10.145807226    15.019653575     6.885033735
 H        2.262572510    -1.030187126     0.035200136
 H        2.262593539     0.538627997     0.879441778
 H        2.274109108     0.483374848    -0.904631382
 H        9.489992755    19.658904359    14.741427783
 H        8.667572109    20.520449451    13.416613990
 H        9.273575749    18.860697972    13.163387856
 H        7.161005134    20.215247672    16.507254521
 C        6.052147856    21.413845930    15.073489938
 C        5.110566420    19.509251620    16.393312538
 H        6.409094963    16.836164157    15.701028824
 C        7.966383057    16.082751039    14.392209365
 C        8.350540792    17.257789529    16.572906742
 H       -0.763807833    15.603654720     2.314110328
 C        1.354075070    16.072594733     2.247327065
 C        0.257647346    14.641809589     3.982773906
 H        0.510862346    18.966582072     2.401997830
 C       -1.479891326    18.653652038     1.592473300
 C       -0.914012620    20.190570771     3.490670714
 H       -2.045265379    13.625930274    -0.205465896
 C       -3.428681350    15.055780854     0.663870174
 C       -2.348541294    13.158760154     1.897968496
 H       -5.121175935    13.933036026    -1.805745388
 C       -3.526562967    12.921386031    -2.878464072
 C       -5.806454893    11.974232630    -2.449627592
 H       -0.089382786    -1.933341543    -1.518338575
 C       -2.121830501    -1.171530239    -1.576449079
 C       -0.192846706    -0.223190216    -2.855012851
 H       -1.783159253    -0.898809699     1.444050838
 C       -0.198022562    -2.367142072     1.639939368
 C       -0.298134648    -0.173679515     2.849270039
 H        6.925550221    21.910241860    14.631371049
 H        5.661322198    22.102234875    15.836492533
 H        5.278544641    21.346583759    14.294979555
 H        5.276150087    18.573643510    16.942219645
 H        4.283380041    19.345960814    15.688265183
 H        4.742745082    20.236512851    17.131878044
 H        7.326023365    15.920784425    13.513215096
 H        8.022016211    15.116310283    14.913217172
 H        8.979968430    16.296220555    14.027848786
 H        7.991551753    17.962005312    17.334532538
 H        9.380107250    17.539581505    16.315366428
 H        8.415333039    16.277474096    17.067206573
 H        1.264114297    16.854099591     1.482310950
 H        1.628917602    15.151270600     1.713307089
 H        2.213881687    16.323636289     2.884395922
 H       -0.642391106    14.378460952     4.556130054
 H        1.072983845    14.792842262     4.705534580
 H        0.529825612    13.750029343     3.400401982
 H       -1.218694156    17.774665225     0.989249969
 H       -1.427605037    19.517607462     0.914742343
 H       -2.535411520    18.557422919     1.885733570
 H       -0.264038376    20.432445539     4.343210803
 H       -1.952522803    20.207060487     3.849656710
 H       -0.818892242    21.028240595     2.785352390
 H       -3.800202932    15.470317401    -0.281397832
 H       -2.625441368    15.729660271     0.997364230
 H       -4.233729495    15.149306359     1.407935711
 H       -1.906560418    12.152697129     1.877870960
 H       -3.110883219    13.165675390     2.690923862
 H       -1.545599204    13.833310566     2.229637851
 H       -2.734318710    13.624656904    -2.591627691
 H       -3.878696519    13.244098172    -3.869102511
 H       -3.062607585    11.935551454    -3.026083530
 H       -6.710494255    11.945965721    -1.826276581
 H       -5.470574588    10.937230475    -2.594543493
 H       -6.125491792    12.333164369    -3.438577487
 H       -2.488808422    -1.739296339    -0.712173795
 H       -2.391277959    -1.759911931    -2.465780354
 H       -2.701545422    -0.239999271    -1.640413682
 H        0.891180216    -0.082855045    -2.954495076
 H       -0.667917162     0.761136370    -2.975462053
 H       -0.505358877    -0.823422903    -3.721493024
 H       -0.482522529    -2.971752305     0.769123112
 H       -0.662534872    -2.848563351     2.512842348
 H        0.886957657    -2.466854680     1.776377400
 H       -0.648397453     0.868165873     2.876060213
 H        0.780761554    -0.165287744     3.053168741
 H       -0.770654256    -0.678080972     3.704163477

