187   

Si        0.000000000     0.000000000     0.000000000
 C        1.865153783     0.000000000     0.000000000
 C       -0.677560231     1.711911649     0.000000000
 C        0.121191481     2.804991587    -0.350456169
 C       -0.403561494     4.097434205    -0.346695116
 C       -1.737600722     4.325483640     0.000230844
 C       -2.538233984     3.228552011     0.346261065
 C       -2.017068803     1.937875354     0.344950427
 C       -2.330916585     5.658199936     0.018671726
 C       -1.680020129     6.793191489    -0.288104874
 C       -2.281145431     8.122766892    -0.267139245
 C       -1.491659994     9.227999774    -0.609287406
 C       -2.024611239    10.515351142    -0.602677961
 C       -3.359146956    10.727849793    -0.240429705
 C       -4.150214073     9.624516888     0.103505843
 C       -3.617057556     8.337420314     0.085144606
Si       -4.110540651    12.407156874    -0.215532314
 C       -5.283792387    12.559456845     1.181565437
 C       -5.141808660    11.884194415     2.329931997
 C       -6.058185976    11.980139973     3.467297281
 C       -5.784841415    11.212302213     4.610721478
 C       -6.616074025    11.262475663     5.716335751
 C       -7.777654700    12.061815283     5.693420738
 C       -8.052960603    12.832063341     4.554406334
 C       -7.186453828    12.802277414     3.465822784
 N       -8.582210510    12.065150543     6.860797901
 C       -9.144110450    10.750093269     7.231647744
 C       -9.537741542    13.175307363     6.987164081
 C      -10.504009071    10.382501644     6.611936200
 C      -10.499380094    10.244902165     5.077694543
 N       -9.918412554     9.002249651     4.549363245
 C      -10.392893931     7.780657158     5.033214413
 C      -11.737030544     7.661273256     5.453907086
 C      -12.216008400     6.454073384     5.934959855
 C      -11.405588096     5.310336636     5.967757229
 C      -10.085107825     5.422792222     5.522596282
 C       -9.579565196     6.628961369     5.058685813
 C       -8.501668625     9.091191624     4.176742045
 C      -11.961959012     4.060052120     6.486152549
 C      -11.278930055     2.910262781     6.563179341
Si      -11.917236424     1.321300399     7.198988155
 C      -10.742332162     0.626465025     8.432558582
 C       -9.796830524     1.450022527     9.052597372
 C       -8.905887822     0.924361492     9.987693005
 C       -8.946125944    -0.430044340    10.329834925
 C       -9.898158337    -1.251441963     9.711266281
 C      -10.787039473    -0.731026256     8.774474333
 C       -8.034285461    -1.023484381    11.302329129
 C       -7.078435209    -0.350353771    11.965112050
 C       -6.166707234    -0.943926916    12.937543076
 C       -6.204188706    -2.298641340    13.277318162
 C       -5.313054274    -2.824469626    14.212822177
 C       -4.367015152    -2.003121063    14.833962979
 C       -4.327605912    -0.643632011    14.495225881
 C       -5.214844810    -0.122972797    13.557520734
Si       -3.183909600    -2.681251544    16.070587735
 C       -3.670425498    -4.397535788    16.616134505
 C       -1.441481633    -2.754156718    15.307373045
 C       -3.142237953    -1.502378061    17.564616730
 C      -13.621252622     1.540633369     8.014535104
 C      -12.089247059     0.110316868     5.740853877
 C       -2.767781473    13.742995947    -0.053184480
 C       -5.060497849    12.685676314    -1.838824062
 C       -0.619521697    -0.918581397    -1.547529529
 C       -0.654602227    -0.907442589     1.540271013
 H        1.171715010     2.688900886    -0.630822217
 H        0.239918265     4.931747954    -0.619641835
 H       -3.580420961     3.384229866     0.618963461
 H       -2.689754909     1.121686075     0.623661090
 H       -3.385703507     5.683681356     0.309074488
 H       -0.626207327     6.770456366    -0.579538715
 H       -0.449439959     9.082718211    -0.886854745
 H       -1.362472278    11.337890996    -0.885842536
 H       -5.201459323     9.730981487     0.393698064
 H       -4.253727627     7.495804098     0.352332679
 H       -6.114476508    13.262029502     1.024144737
 H       -4.311582288    11.183707810     2.506382010
 H       -4.896669670    10.578836229     4.635886996
 H       -6.371060202    10.697695708     6.614003634
 H       -8.935242551    13.463358100     4.513014753
 H       -7.408712497    13.420621442     2.595410208
 H       -9.970486450    13.157986743     8.002985052
 H      -10.361242265    13.156050439     6.256701717
 H       -8.994853285    14.132032614     6.881923559
 H       -8.277125490    10.090761360     3.759370853
 H       -8.286288737     8.359230432     3.376415111
 H       -7.813878593     8.915198005     5.020420174
 H      -12.403541458     8.516239604     5.401208507
 H      -13.249806376     6.391381052     6.276470596
 H       -9.431928552     4.548318713     5.537853121
 H       -8.546631120     6.672743365     4.729607091
 H      -13.005543843     4.154543083     6.813560324
 H      -10.234178988     2.847828884     6.215066617
 H       -9.722056368     2.519045516     8.827384708
 H       -8.175862204     1.583708736    10.453590765
 H       -9.945689179    -2.308793717     9.964016745
 H      -11.507088050    -1.419179534     8.323538700
 H       -8.178231563    -2.094896824    11.469695724
 H       -6.934508732     0.721130934    11.797749164
 H       -6.933430747    -2.958634314    12.811220768
 H       -5.390656444    -3.891888084    14.437055876
 H       -3.610208485     0.046126637    14.948949351
 H       -5.167994756     0.934994061    13.306350177
 H       -8.403576001     9.954055817     6.992743532
 H       -9.243182985    10.755511938     8.344295318
 H      -10.845653038     9.429509142     7.069453215
 H      -11.265064122    11.130990472     6.902028572
 H      -11.549668532    10.305082793     4.700969834
 H       -9.969002770    11.110647370     4.618778926
 H        2.262552802    -1.029161030     0.058264468
 H        2.260760824     0.558042098     0.868156354
 H        2.275692822     0.463455893    -0.914002203
 H       -2.981683032    -4.778503068    17.391307512
 H       -3.654874123    -5.114185845    15.776510820
 H       -4.688670798    -4.402685390    17.045770277
 H       -0.785757835    -3.232014730    16.091488598
 C       -1.388899529    -3.630296738    14.042258830
 C       -0.854289094    -1.371249126    14.973362234
 H       -2.797919183    -0.505454040    17.162098383
 C       -4.532532236    -1.300536768    18.194146367
 C       -2.152805368    -1.935192384    18.661070227
 H      -14.265671985     2.061118671     7.248063516
 C      -14.301338418     0.209120824     8.380402165
 C      -13.559696935     2.425468820     9.273122238
 H      -12.509636414    -0.842114449     6.175696225
 C      -13.060108068     0.608519552     4.656138487
 C      -10.735369853    -0.222711601     5.088846834
 H       -2.085427431    13.608711321    -0.941978812
 C       -3.328138633    15.175858927    -0.098449780
 C       -1.928023894    13.576813093     1.226123809
 H       -5.493902076    13.725242906    -1.772293557
 C       -4.158916754    12.621402229    -3.083796311
 C       -6.224477270    11.693496590    -2.012496524
 H       -0.133039690    -1.936082170    -1.514155228
 C       -2.145271345    -1.119958608    -1.572218724
 C       -0.192051326    -0.227705256    -2.855463879
 H       -1.779193420    -0.914199205     1.441151040
 C       -0.182928258    -2.369215673     1.637965474
 C       -0.301773191    -0.177869277     2.849043255
 H       -1.711077945    -4.665280207    14.214462129
 H       -0.357176603    -3.688413886    13.666790130
 H       -1.993674988    -3.226498150    13.217485952
 H       -0.784528867    -0.704967018    15.842446678
 H       -1.418720679    -0.846723334    14.189487205
 H        0.170441911    -1.481681312    14.589457219
 H       -5.283490650    -0.935021346    17.479055899
 H       -4.478794617    -0.548155345    18.993911740
 H       -4.931955150    -2.213570487    18.655102417
 H       -1.120135618    -2.031256966    18.301578108
 H       -2.430573896    -2.884342711    19.138222049
 H       -2.129827813    -1.183525776    19.463605129
 H      -14.473525502    -0.444180875     7.515712917
 H      -15.290820019     0.401562143     8.820086061
 H      -13.741102780    -0.365630588     9.131236596
 H      -13.121578587     3.416711567     9.093073058
 H      -12.991659429     1.960575556    10.091985550
 H      -14.572563574     2.600697439     9.661709712
 H      -14.076709973     0.786046809     5.029821009
 H      -13.152112320    -0.142705473     3.858935341
 H      -12.718821948     1.533472449     4.169000104
 H       -9.998337720    -0.626334671     5.797308980
 H      -10.277202984     0.641741976     4.588876057
 H      -10.869133612    -0.991332014     4.314554309
 H       -3.872474151    15.402235479    -1.024103892
 H       -2.504578002    15.902654775    -0.042687880
 H       -3.993202812    15.402202957     0.746568682
 H       -1.447785478    12.592175360     1.310753276
 H       -2.512396489    13.737554959     2.143856076
 H       -1.116338761    14.317769026     1.244047704
 H       -3.352884381    13.366260688    -3.077868131
 H       -4.752050631    12.818681860    -3.988623705
 H       -3.699798993    11.632925838    -3.229493054
 H       -6.947434151    11.718279218    -1.185906926
 H       -5.885676854    10.653569916    -2.127119398
 H       -6.790475493    11.932704752    -2.924121453
 H       -2.523705731    -1.689958296    -0.714243041
 H       -2.434449035    -1.688135401    -2.468369207
 H       -2.700361189    -0.172347124    -1.619420291
 H        0.895227239    -0.116718839    -2.955689180
 H       -0.641439236     0.768213234    -2.978726134
 H       -0.520680379    -0.822047664    -3.720110161
 H       -0.459577270    -2.974955992     0.765446597
 H       -0.647094634    -2.855431655     2.508543845
 H        0.902196575    -2.460820216     1.778518210
 H       -0.659014095     0.861516957     2.876510723
 H        0.776677957    -0.162163330     3.054873713
 H       -0.772123000    -0.686550112     3.702801410

