187   

Si        0.000000000     0.000000000     0.000000000
 C        1.865193424     0.000000000     0.000000000
 C       -0.664259120     1.717377673     0.000000000
 C        0.051226376     2.744959675    -0.625101361
 C       -0.440532109     4.049441019    -0.632289432
 C       -1.660033981     4.357024236    -0.022447089
 C       -2.378758851     3.325898205     0.596070371
 C       -1.890416385     2.021593114     0.604281461
 C       -2.211513673     5.708048193    -0.006519749
 C       -1.620965646     6.778925322    -0.563384840
 C       -2.165719428     8.132293851    -0.551687400
 C       -3.383443140     8.451249427     0.054731183
 C       -3.865254200     9.760236514     0.041064612
 C       -3.146445185    10.775207297    -0.597357347
 C       -1.926674279    10.457410297    -1.210549855
 C       -1.441902568     9.153106268    -1.182769029
Si       -3.745326124    12.514526364    -0.639268011
 C       -3.357759722    13.306294062    -2.241837947
 C       -3.274140293    12.634821694    -3.398528118
 C       -2.965681751    13.247351795    -4.690960485
 C       -2.908524695    12.428230103    -5.828332835
 C       -2.621074102    12.953635103    -7.076459193
 C       -2.427045079    14.343074639    -7.240678810
 C       -2.485507130    15.165690217    -6.099926166
 C       -2.728644070    14.615045608    -4.847537285
 N       -2.136038654    14.856568252    -8.516312325
 C       -2.767764798    14.190806516    -9.667842460
 C       -2.082513570    16.319809427    -8.661350101
 C       -4.306562475    14.248459534    -9.636643825
 C       -4.933544393    13.489097983   -10.818165173
 N       -4.935695598    14.214343537   -12.103810433
 C       -3.671561872    14.419829873   -12.700667813
 C       -2.812349234    13.309826601   -12.849211687
 C       -1.564495832    13.464375027   -13.428445924
 C       -1.144199324    14.709061492   -13.922339062
 C       -2.008774878    15.798692455   -13.800538630
 C       -3.258442538    15.663498792   -13.205539456
 C       -5.860468242    15.359495257   -12.111063356
 C        0.186090923    14.815682576   -14.525273695
 C        0.693318594    15.948231052   -15.028726848
Si        2.344451607    16.135027788   -15.790723132
 C        2.189030091    16.979523218   -17.416726397
 C        0.967626926    16.976983679   -18.098518069
 C        0.844955618    17.616012023   -19.331758127
 C        1.939820182    18.259771700   -19.914919368
 C        3.163846135    18.254697412   -19.232505677
 C        3.289069284    17.621859267   -17.998545804
 C        1.857371063    18.940699780   -21.202907493
 C        0.747564542    19.019168735   -21.956446204
 C        0.663494259    19.699630882   -23.244475592
 C        1.755021601    20.348150918   -23.827692608
 C        1.629574586    20.986476912   -25.061581669
 C        0.408488179    20.983887186   -25.742875581
 C       -0.687755194    20.333141836   -25.160491274
 C       -0.560858042    19.701713021   -23.926460265
Si        0.225411116    21.821326374   -27.372045018
 C        1.881077925    22.285817518   -28.095064683
 C       -0.697245120    20.640600203   -28.546031047
 C       -0.814933549    23.401446520   -27.162522847
 C        3.423802031    17.185478730   -14.627307573
 C        3.183235279    14.447414932   -16.043277122
 C       -5.625328271    12.579953817    -0.356016678
 C       -2.885698163    13.495234142     0.745458769
 C       -0.632579792    -0.898747186    -1.553972756
 C       -0.647704412    -0.929783937     1.529817366
 H        1.010846863     2.566633758    -1.118582838
 H        0.137985088     4.831128529    -1.121419232
 H       -3.331492363     3.542832714     1.075378910
 H       -2.497580651     1.259009677     1.099536749
 H       -3.173027420     5.804924623     0.505478341
 H       -0.658740167     6.679139766    -1.074911050
 H       -3.966422197     7.676731583     0.549116731
 H       -4.818886508     9.950154774     0.540741512
 H       -1.322803891    11.212300858    -1.726236797
 H       -0.491105455     8.925643770    -1.661270950
 H       -3.210929674    14.395181269    -2.199001521
 H       -3.424912081    11.547068786    -3.463820204
 H       -3.080329482    11.355452578    -5.728424563
 H       -2.546188693    12.286932779    -7.930955958
 H       -2.336998986    16.237289392    -6.180410733
 H       -2.751412029    15.272625064    -3.977374639
 H       -1.793459972    16.580201120    -9.694995491
 H       -1.293725667    16.723294254    -8.000297235
 H       -3.036138768    16.820642191    -8.431384720
 H       -6.845749809    15.032984314   -11.735271058
 H       -6.011445261    15.697608369   -13.152237440
 H       -5.523591283    16.214945791   -11.504407968
 H       -3.134065449    12.327648558   -12.511469311
 H       -0.905922025    12.599352872   -13.515146804
 H       -1.707248479    16.777638875   -14.176876930
 H       -3.897872174    16.536663872   -13.124256976
 H        0.735578755    13.865115668   -14.528561676
 H        0.117836286    16.888847830   -15.004330481
 H        0.077559706    16.484088629   -17.693623988
 H       -0.117157361    17.605516882   -19.840769034
 H        4.028486823    18.750113240   -19.669829958
 H        4.267679352    17.651524843   -17.511748113
 H        2.790471502    19.404178136   -21.536202044
 H       -0.185361101    18.554890294   -21.623079059
 H        2.717675382    20.361182129   -23.319862573
 H        2.518472204    21.477890077   -25.466741069
 H       -1.666447049    20.297629823   -25.647398956
 H       -1.423922836    19.202838835   -23.489602463
 H       -2.376878725    14.662550903   -10.600063648
 H       -2.415033110    13.135120567    -9.704550624
 H       -4.672379876    13.812529686    -8.684700341
 H       -4.645825728    15.299563672    -9.626859034
 H       -4.421104379    12.511221743   -10.963337644
 H       -5.993343741    13.236334751   -10.578763858
 H        2.263531074    -1.028268375     0.064046487
 H        2.258416367     0.563981564     0.865742540
 H        2.277494972     0.460397733    -0.914569891
 H        1.764791241    22.746527085   -29.092340309
 H        2.524719457    21.395345685   -28.214480832
 H        2.418936099    23.007842135   -27.455989697
 H       -1.700023156    20.447608806   -28.064688208
 C       -0.951840110    21.236644481   -29.941896551
 C        0.018057783    19.286359431   -28.701559292
 H       -0.833713459    23.889942300   -28.179582976
 C       -2.269484482    23.132655477   -26.737108130
 C       -0.185890513    24.394148096   -26.167619877
 H        4.440363689    17.243871053   -15.113506635
 C        2.891749617    18.620637140   -14.465899783
 C        3.596766544    16.553786892   -13.235002844
 H        3.162958371    13.937277934   -15.036766490
 C        2.425649972    13.560119670   -17.047851149
 C        4.651738214    14.556544740   -16.491065259
 H       -5.807791144    12.098531758     0.647881020
 C       -6.181171596    14.014378629    -0.301579399
 C       -6.404720128    11.784745064    -1.418932679
 H       -3.288901681    14.546741625     0.678140172
 C       -3.195785636    12.952631708     2.151402543
 C       -1.359099227    13.556182129     0.558159069
 H       -0.172810173    -1.928447860    -1.523965784
 C       -2.163374153    -1.058651848    -1.579449025
 C       -0.185220251    -0.214148530    -2.858435423
 H       -1.773643600    -0.912382965     1.449899905
 C       -0.205444541    -2.403271425     1.584806266
 C       -0.256222413    -0.241456855     2.850068559
 H       -1.524538454    22.172722182   -29.917216822
 H       -1.540191880    20.532797919   -30.548497042
 H       -0.026782301    21.425007070   -30.502698195
 H        0.187653712    18.772599353   -27.744381928
 H        0.988363813    19.369044152   -29.208859408
 H       -0.592608463    18.605132818   -29.311066669
 H       -2.818409270    22.493001862   -27.439637349
 H       -2.826570990    24.079625546   -26.686345488
 H       -2.344983944    22.680508598   -25.738163867
 H        0.828714926    24.707070145   -26.445750595
 H       -0.143366926    24.001267056   -25.141540399
 H       -0.788288297    25.312682985   -26.120269939
 H        2.780335384    19.153714305   -15.420766450
 H        3.591696596    19.216108184   -13.862457270
 H        1.924528190    18.663203480   -13.946970144
 H        4.054544640    15.556478301   -13.262907096
 H        2.650084023    16.469356333   -12.682098351
 H        4.258447938    17.178224714   -12.617701519
 H        1.371127572    13.398616859   -16.785866714
 H        2.888163791    12.564243427   -17.095735245
 H        2.450600542    13.960310385   -18.071935085
 H        5.287510559    15.092650217   -15.775031658
 H        4.765801404    15.040271687   -17.471479112
 H        5.087872318    13.552154743   -16.594638184
 H       -5.731290926    14.626651222     0.490327617
 H       -7.260762954    13.991059108    -0.094311692
 H       -6.063347134    14.554201494    -1.251597879
 H       -6.105777691    10.729400198    -1.483060838
 H       -6.310426667    12.214783818    -2.426834028
 H       -7.477682673    11.787288903    -1.181528122
 H       -4.265314700    12.963778156     2.397043148
 H       -2.699778903    13.572936512     2.911993110
 H       -2.828051908    11.927967221     2.305611291
 H       -1.054309717    13.982603145    -0.407383294
 H       -0.878037705    12.571982842     0.653567103
 H       -0.909306401    14.193527017     1.332606346
 H       -2.555708879    -1.631067547    -0.729333233
 H       -2.469458491    -1.604572612    -2.483648143
 H       -2.693322449    -0.095871264    -1.609220903
 H        0.904899647    -0.135688082    -2.958094285
 H       -0.605732072     0.794921420    -2.976842124
 H       -0.531425592    -0.794407121    -3.725823513
 H       -0.514783165    -2.983211649     0.705701344
 H       -0.660334476    -2.899095106     2.454687158
 H        0.880334547    -2.521109953     1.698201791
 H       -0.579065384     0.807780658     2.907177757
 H        0.825235240    -0.263949870     3.040226210
 H       -0.729774501    -0.755680645     3.698458856

