187   

Si        0.000000000     0.000000000     0.000000000
 C        1.864921946     0.000000000     0.000000000
 C       -0.671860213     1.714449863     0.000000000
 C        0.095407209     2.781555211     0.479092354
 C       -0.415322540     4.079200479     0.478200279
 C       -1.703294447     4.339270963     0.002911605
 C       -2.472977523     3.268714252    -0.471014350
 C       -1.966697635     1.971852922    -0.469228629
 C       -2.278915572     5.679459385    -0.017303696
 C       -1.651190473     6.788781537     0.408443689
 C       -2.232112168     8.126741252     0.385754315
 C       -1.470416262     9.203148353     0.860019007
 C       -1.987261408    10.496069864     0.855934531
 C       -3.277495342    10.741739486     0.370588166
 C       -4.035695810     9.671162898    -0.114048435
 C       -3.512834337     8.378897857    -0.113139205
Si       -3.978346859    12.441664284     0.356556479
 C       -5.798495108    12.291548420     0.406240450
 C       -6.675482403    12.896886302    -0.404343026
 C       -8.126933679    12.721793647    -0.296518759
 C       -8.966720660    13.398725163    -1.192504415
 C      -10.344641663    13.257338407    -1.120726812
 C      -10.913891375    12.410307219    -0.154436881
 C      -10.080422376    11.697448422     0.714155117
 C       -8.700423807    11.831766052     0.615329006
 N      -12.340798323    12.315294702    -0.141155518
 C      -12.991164617    13.501619214     0.457829121
 C      -12.864229449    11.045063960     0.393791913
 C      -12.716755880    13.718943763     1.959014895
 C      -11.618394734    14.773114465     2.199283578
 N      -10.992995045    14.730407308     3.541081278
 C      -10.053974709    13.648366558     3.650163299
 C       -8.733477395    13.946139708     3.276500512
 C       -7.758542081    12.963482698     3.348975336
 C       -8.069540973    11.672448161     3.805089727
 C       -9.382981509    11.392898063     4.189700509
 C      -10.370635498    12.371938187     4.124474238
 C      -11.970649177    14.785293215     4.642324720
 C       -7.001899843    10.669157149     3.862710299
 C       -7.180856695     9.409582307     4.279493137
Si       -5.894659461     8.112099140     4.375434820
 C       -5.911728588     7.307719635     6.026338095
 C       -6.517309414     7.935093110     7.119689119
 C       -6.527396032     7.319797247     8.371091948
 C       -5.926556958     6.072081591     8.558435952
 C       -5.315433982     5.448649839     7.462053333
 C       -5.305866705     6.058193747     6.210450333
 C       -5.912935190     5.391374533     9.849130759
 C       -6.460831642     5.877392141    10.975888689
 C       -6.447697250     5.197496671    12.266837802
 C       -5.850151992     3.948681398    12.455559299
 C       -5.860981314     3.334601921    13.707908246
 C       -6.466099465     3.960841221    14.802018005
 C       -7.065900827     5.213809614    14.615482408
 C       -7.058111935     5.821645742    13.363206131
Si       -6.489390960     3.164630815    16.461402461
 C       -5.331772167     1.703819703    16.537849343
 C       -5.989558889     4.469176866    17.754596276
 C       -8.253180958     2.566946653    16.855446317
 C       -6.308457359     6.822402936     3.035570924
 C       -4.165623533     8.812190769     4.015903271
 C       -3.393333639    13.430214143     1.871533467
 C       -3.396291917    13.343449116    -1.211114506
 C       -0.649199567    -0.917342505    -1.536687623
 C       -0.630070923    -0.907871812     1.549335207
 H        1.110292318     2.640143273     0.861234501
 H        0.203132815     4.892468923     0.853798356
 H       -3.479332623     3.449268461    -0.844650206
 H       -2.614562200     1.176623987    -0.848314648
 H       -3.296726128     5.733358470    -0.415419399
 H       -0.633709712     6.736246099     0.805789727
 H       -0.465830296     9.029210447     1.239901000
 H       -1.350656172    11.296678100     1.242001864
 H       -5.048312848     9.808423717    -0.509979461
 H       -4.115138630     7.561627847    -0.506967207
 H       -6.147645120    11.619317423     1.212442904
 H       -6.376370479    13.576022567    -1.211098847
 H       -8.535972919    14.055872571    -1.946906331
 H      -10.993089855    13.784560936    -1.817527149
 H      -10.499140793    11.039025399     1.471057818
 H       -8.065359248    11.241017917     1.281040157
 H      -13.936281556    10.976672692     0.139791388
 H      -12.757055089    10.920546512     1.481943618
 H      -12.354534630    10.203186654    -0.107011916
 H      -12.547388390    15.721707559     4.552247258
 H      -11.422069596    14.824941472     5.600089763
 H      -12.677165094    13.943785563     4.682314294
 H       -8.492438993    14.948697447     2.924309081
 H       -6.737622331    13.205095685     3.048633053
 H       -9.646864058    10.399462518     4.552932886
 H      -11.383055281    12.137695218     4.439246339
 H       -6.024976308    11.053312203     3.539615497
 H       -8.176018471     9.052358792     4.595278938
 H       -6.998408350     8.914523453     7.033668610
 H       -7.008683083     7.825170691     9.206337495
 H       -4.841576772     4.477039070     7.587701751
 H       -4.814005687     5.525317425     5.391101438
 H       -5.409610439     4.420125247     9.848669278
 H       -6.963834159     6.848832031    10.975575334
 H       -5.369036530     3.441986768    11.620954352
 H       -5.378242715     2.357204072    13.793332586
 H       -7.552906022     5.751128670    15.434208061
 H       -7.530436116     6.794108589    13.237639308
 H      -12.675209019    14.392521492    -0.130068257
 H      -14.085934127    13.394728117     0.284825467
 H      -13.647580805    14.025497762     2.467883032
 H      -12.419255071    12.761746442     2.429088831
 H      -10.807020294    14.657292925     1.442169520
 H      -12.032111719    15.796907186     2.065660985
 H        2.263387402    -1.028580198    -0.060553858
 H        2.276717063     0.462524650     0.913916273
 H        2.258777215     0.560510605    -0.867625512
 H       -5.322532409     1.255624787    17.547440024
 H       -4.295827742     2.006533114    16.299931716
 H       -5.624071820     0.912486393    15.825629509
 H       -6.759996089     5.290788227    17.678295302
 C       -6.007388982     3.939858443    19.199602399
 C       -4.610582055     5.088473705    17.463843480
 H       -8.181647791     2.046176283    17.854054566
 C       -9.278136189     3.707614440    16.987094073
 C       -8.776145640     1.550719346    15.823857837
 H       -5.421761665     6.125465638     2.991776251
 C       -7.552884769     5.984375263     3.377758611
 C       -6.495577801     7.452412357     1.645227413
 H       -4.265480782     9.429827473     3.074150642
 C       -3.664638686     9.728945667     5.146858077
 C       -3.105701759     7.729169644     3.751813742
 H       -2.281161251    13.566611447     1.735498792
 C       -4.036643807    14.825867563     1.956987885
 C       -3.617908503    12.695239038     3.203216827
 H       -3.937571878    14.333605360    -1.221038139
 C       -1.883799748    13.628064407    -1.222468402
 C       -3.764820989    12.582649169    -2.497777575
 H       -1.774254633    -0.921655556    -1.443575071
 C       -0.287242658    -0.198903110    -2.849155277
 C       -0.180286791    -2.380864351    -1.621123114
 H       -0.161880935    -1.933890511     1.516972138
 C       -0.190078503    -0.223505986     2.856452479
 C       -2.159385794    -1.081047987     1.572851227
 H       -6.985447565     3.547592991    19.506794873
 H       -5.769150952     4.753569139    19.900119189
 H       -5.261118098     3.154284999    19.377551966
 H       -4.539194761     5.537930365    16.462892677
 H       -3.787322173     4.368593206    17.562357596
 H       -4.401723221     5.897154243    18.178689524
 H       -9.024105699     4.433419663    17.769916826
 H      -10.262628323     3.298295842    17.256964556
 H       -9.424815609     4.259865081    16.048150372
 H       -8.147295156     0.655404064    15.736131667
 H       -8.885065086     1.980634993    14.817648588
 H       -9.775109775     1.196659300    16.116220277
 H       -7.476972103     5.464790068     4.343176059
 H       -7.698533565     5.201604428     2.619988530
 H       -8.478340313     6.575218461     3.392552863
 H       -5.629487402     8.046273691     1.319138405
 H       -7.382334319     8.099690048     1.585093531
 H       -6.634815521     6.666083635     0.890722377
 H       -4.327748939    10.581901286     5.345078050
 H       -2.682956671    10.148890228     4.884842393
 H       -3.521579424     9.195315092     6.097522080
 H       -3.332434012     7.101926302     2.877972252
 H       -2.935871848     7.067644498     4.610869511
 H       -2.136933760     8.201728285     3.529067044
 H       -3.827467112    15.456280929     1.083394372
 H       -3.641917785    15.370183632     2.826939732
 H       -5.128336744    14.790390387     2.085462642
 H       -3.196866290    11.679302767     3.219014619
 H       -4.679752078    12.620687786     3.477277668
 H       -3.129244038    13.241750891     4.022589501
 H       -1.553753843    14.267425155    -0.393913855
 H       -1.608464491    14.159185032    -2.145566607
 H       -1.274927294    12.713082049    -1.205411018
 H       -4.839540291    12.375922529    -2.594226466
 H       -3.236271371    11.622886506    -2.591472243
 H       -3.484267660    13.174575704    -3.380424205
 H       -0.639001145     0.842021057    -2.886329380
 H       -0.755007809    -0.711797948    -3.701600916
 H        0.792487215    -0.189518101    -3.049518581
 H       -0.466431426    -2.980548847    -0.747405853
 H        0.905869699    -2.476239768    -1.751224830
 H       -0.637603345    -2.871408470    -2.492780833
 H        0.899275505    -0.135677258     2.957722756
 H       -0.532206769    -0.809412012     3.721721151
 H       -0.618756637     0.781658594     2.977698029
 H       -2.545991065    -1.652925644     0.719731488
 H       -2.697768601    -0.123273042     1.607847761
 H       -2.461206072    -1.634545749     2.474016810

