187   

Si        0.000000000     0.000000000     0.000000000
 C        1.865860983     0.000000000     0.000000000
 C       -0.660582077     1.717836997     0.000000000
 C        0.094402596     2.770816184    -0.528202979
 C       -0.406306331     4.072505920    -0.528133151
 C       -1.661287588     4.352480943     0.017916404
 C       -2.416641272     3.296766936     0.545823143
 C       -1.928127751     1.993937628     0.527571598
 C       -2.231257241     5.693895364     0.043679479
 C       -1.637540376     6.797872888    -0.440941895
 C       -2.235354345     8.128642048    -0.399978413
 C       -3.496958986     8.353237306     0.159359065
 C       -4.044429650     9.632951082     0.185706528
 C       -3.350229410    10.715869689    -0.369146460
 C       -2.092506162    10.494008934    -0.939770852
 C       -1.543486877     9.212924816    -0.953168674
Si       -4.129309846    12.376265768    -0.300680245
 C       -3.015871727    13.792384054    -0.588864078
 C       -1.709811999    13.864957086    -0.302602840
 C       -0.899104543    15.056693154    -0.575566630
 C        0.462362514    15.046946658    -0.243599291
 C        1.260075847    16.157520127    -0.487797584
 C        0.692444010    17.315963847    -1.036354048
 C       -0.670685399    17.344240329    -1.347711213
 C       -1.456083210    16.222299649    -1.111286859
 N        1.589758580    18.419897070    -1.257182651
 C        2.156304672    18.422323341    -2.622698836
 C        1.015618079    19.720663715    -0.865229493
 C        1.185661951    18.758877572    -3.775918142
 C        1.001073169    17.598434423    -4.773900399
 N       -0.086335503    16.701975171    -4.322994598
 C        0.200767471    15.320894737    -4.359853317
 C        1.363713725    14.869146549    -3.701470469
 C        1.690666277    13.525089405    -3.707522854
 C        0.858661525    12.581026492    -4.330187935
 C       -0.310723813    13.027339575    -4.948132934
 C       -0.652457348    14.375781265    -4.952036918
 C       -1.409430225    17.117139169    -4.812259349
 C        1.259927675    11.173920970    -4.302170399
 C        0.565183952    10.170043455    -4.853625926
Si        1.074807934     8.413782978    -4.813536701
 C       -0.279663351     7.313369551    -4.243904086
 C       -1.546179976     7.798766768    -3.902523528
 C       -2.543371289     6.923224371    -3.474888337
 C       -2.304713107     5.545847353    -3.403122755
 C       -1.040454811     5.063985625    -3.757747818
 C       -0.038659758     5.935751331    -4.173921983
 C       -3.368567923     4.654377558    -2.951573947
 C       -3.221342086     3.323353542    -2.842336132
 C       -4.247403878     2.389759142    -2.398115240
 C       -5.532508226     2.789696456    -2.027031502
 C       -6.474812549     1.849064839    -1.609243061
 C       -6.145465978     0.491865272    -1.546504582
 C       -4.855964349     0.088288218    -1.919571881
 C       -3.922882207     1.027255949    -2.344631007
Si       -7.365278008    -0.770973233    -1.000082076
 C       -9.050623663    -0.027143322    -0.709859188
 C       -7.449471633    -2.119580812    -2.339424046
 C       -6.762077571    -1.554508905     0.628937452
 C        1.571005250     7.877614574    -6.569695810
 C        2.573924554     8.220141726    -3.650900787
 C       -5.437812681    12.447878435    -1.686234629
 C       -4.981413572    12.609902891     1.383910849
 C       -0.679142488    -0.834482499    -1.571708106
 C       -0.590980515    -0.990124605     1.515875148
 H        1.088584188     2.615220843    -0.954735398
 H        0.190885634     4.874321610    -0.959172982
 H       -3.402725328     3.491829047     0.963370170
 H       -2.572133529     1.209356103     0.936087474
 H       -3.222139281     5.753955896     0.504826043
 H       -0.653121081     6.745909972    -0.914758869
 H       -4.060375131     7.526847203     0.588459925
 H       -5.028402175     9.745340539     0.649297060
 H       -1.511707173    11.302208343    -1.397366805
 H       -0.563475114     9.054889452    -1.402673145
 H       -3.537539520    14.655261680    -1.039698368
 H       -1.145001067    13.040296800     0.148851951
 H        0.907040574    14.153342471     0.192793696
 H        2.321291897    16.146146470    -0.245898352
 H       -1.115667885    18.231911752    -1.786524490
 H       -2.514800748    16.256658563    -1.365588857
 H        1.823044149    20.472260995    -0.864414788
 H        0.631714919    19.645326324     0.167053559
 H        0.202292912    20.084594805    -1.509768635
 H       -1.554687082    18.190470826    -4.602499943
 H       -2.190042681    16.569439433    -4.252556324
 H       -1.558691547    16.950378337    -5.891316512
 H        1.990761076    15.581382029    -3.168511607
 H        2.599117244    13.196167210    -3.202557041
 H       -0.978911402    12.311879894    -5.429089686
 H       -1.572041667    14.685313800    -5.437012825
 H        2.205135395    11.015215998    -3.764543177
 H       -0.377535751    10.356003251    -5.391781188
 H       -1.788916260     8.865269162    -3.938825044
 H       -3.516985269     7.319742097    -3.191278543
 H       -0.827804475     3.997320139    -3.706584167
 H        0.926196892     5.496695538    -4.443218890
 H       -4.312290669     5.142771264    -2.700346003
 H       -2.262051747     2.852912938    -3.086769704
 H       -5.808018205     3.841699482    -2.062145888
 H       -7.466634607     2.217389133    -1.335811503
 H       -4.544114166    -0.959589372    -1.895775467
 H       -2.926096238     0.699727143    -2.638562393
 H        2.997184909    19.152362633    -2.615745920
 H        2.619514858    17.421826383    -2.783029791
 H        0.198208611    19.047780609    -3.367279162
 H        1.553335546    19.647164670    -4.320195151
 H        0.774844858    18.009176036    -5.784295531
 H        1.953378599    17.035319614    -4.887751047
 H        2.266999747    -1.027416766     0.047672079
 H        2.266124510     0.555343833     0.867183600
 H        2.269623098     0.469756109    -0.913997651
 H       -9.780171099    -0.799165334    -0.407031915
 H       -9.437125379     0.451204833    -1.627967943
 H       -9.026629962     0.738515765     0.085300027
 H       -6.405973139    -2.543758839    -2.416370106
 C       -8.404595390    -3.273875348    -1.987769688
 C       -7.829792493    -1.556445301    -3.720746102
 H       -7.626999714    -2.174878458     1.002216135
 C       -5.546126747    -2.484587616     0.469749618
 C       -6.432533875    -0.496887868     1.699170861
 H        1.903310444     6.802823478    -6.481942079
 C        0.390339541     7.928120156    -7.555689405
 C        2.741180376     8.695105435    -7.143543009
 H        3.302323718     9.022367005    -3.967341364
 C        2.202574252     8.460342578    -2.175386647
 C        3.299427745     6.867449218    -3.758463287
 H       -5.929904690    13.458371303    -1.599769997
 C       -4.793499155    12.343109040    -3.081126008
 C       -6.530592972    11.373495926    -1.557855281
 H       -5.777119866    11.812968370     1.447457247
 C       -4.008560424    12.407590265     2.559235296
 C       -5.669238765    13.978826794     1.531593564
 H       -1.803833421    -0.804992251    -1.463266304
 C       -0.304283001    -0.075081040    -2.857632830
 C       -0.256208843    -2.306147608    -1.721667414
 H        0.069472692    -1.905597653     1.542287423
 C       -0.386628424    -0.220944487     2.833877273
 C       -2.050635131    -1.474391079     1.445150101
 H       -8.158830332    -3.769086549    -1.039524445
 H       -8.354064853    -4.052069724    -2.763187077
 H       -9.455502773    -2.959205522    -1.937600043
 H       -7.152937783    -0.761380992    -4.065630247
 H       -8.852603947    -1.158822178    -3.756149413
 H       -7.780257796    -2.351238194    -4.478552553
 H       -5.716197243    -3.308152690    -0.234879003
 H       -5.305618461    -2.953861660     1.434832828
 H       -4.639280736    -1.949203092     0.153776728
 H       -7.277053902     0.163727100     1.933839620
 H       -5.580849419     0.140836660     1.419825632
 H       -6.156931647    -0.988516978     2.642861600
 H       -0.469977900     7.323715670    -7.234270962
 H        0.697612227     7.526926508    -8.531932009
 H        0.029946318     8.948962667    -7.741335494
 H        3.651490399     8.640767119    -6.532848716
 H        2.494338249     9.757931574    -7.278494924
 H        3.014585720     8.314445132    -8.138008636
 H        1.736295019     9.439096988    -1.994556212
 H        3.104956621     8.429659205    -1.548845222
 H        1.526517630     7.689725872    -1.777386814
 H        3.619678918     6.621226745    -4.778326964
 H        2.698138977     6.028999822    -3.380569857
 H        4.214402670     6.884496350    -3.148538130
 H       -4.033340576    13.114687868    -3.269696409
 H       -5.558224291    12.464960961    -3.860196223
 H       -4.322821675    11.365122537    -3.260397191
 H       -7.089633228    11.430622627    -0.615507480
 H       -6.137301764    10.351009081    -1.654166464
 H       -7.271775705    11.492902120    -2.361072673
 H       -3.523847400    11.420900594     2.557437809
 H       -4.547820227    12.483255851     3.513797327
 H       -3.213660152    13.166561013     2.592531254
 H       -6.428601796    14.170783314     0.763330751
 H       -4.957892386    14.816819766     1.518103765
 H       -6.190153938    14.034594592     2.498274281
 H       -0.580585789     0.989049897    -2.833500256
 H       -0.826109099    -0.513744795    -3.720225800
 H        0.767893189    -0.130239080    -3.087288500
 H       -0.549085857    -2.933914011    -0.870275288
 H        0.825224095    -2.428332998    -1.865509705
 H       -0.735170855    -2.746213569    -2.608313157
 H        0.653693641     0.087111938     3.002431221
 H       -0.660608339    -0.854959962     3.688796034
 H       -1.011233356     0.681473136     2.904206772
 H       -2.257695237    -2.099823312     0.567251132
 H       -2.780942149    -0.653118150     1.449779688
 H       -2.282783787    -2.092232359     2.324570667

