187   

Si        0.000000000     0.000000000     0.000000000
 C        1.865032914     0.000000000     0.000000000
 C       -0.678902852     1.710204918     0.000000000
 C        0.130148737     2.810609358    -0.299772524
 C       -0.398274813     4.101631064    -0.295940905
 C       -1.744256105     4.320259191     0.006816878
 C       -2.553897037     3.215853283     0.304525713
 C       -2.030846338     1.926711239     0.299498118
 C       -2.343620860     5.648894491     0.024115417
 C       -1.693813388     6.794559649    -0.241470644
 C       -2.315224213     8.114885128    -0.218078267
 C       -1.530676602     9.236427451    -0.513758544
 C       -2.084613417    10.514458495    -0.502552681
 C       -3.441044880    10.695126340    -0.210590070
 C       -4.229771461     9.576350882     0.080213833
 C       -3.668764518     8.301228950     0.078179672
Si       -4.209705256    12.365385569    -0.185785104
 C       -5.886504607    12.206683026    -0.896056834
 C       -7.018181584    12.668808933    -0.349526791
 C       -8.340831667    12.517592637    -0.956702079
 C       -9.456873295    13.042634637    -0.292826519
 C      -10.730593718    12.925215207    -0.826712069
 C      -10.950593385    12.163365049    -1.993276669
 C       -9.829592425    11.605905927    -2.643405474
 C       -8.551289184    11.806591613    -2.142424488
 N      -12.235827048    12.037934550    -2.542056456
 C      -13.412599953    12.211275436    -1.673756626
 C      -12.423831278    10.980735538    -3.551201921
 C      -13.719265703    11.012719839    -0.756359836
 C      -13.258579998    11.252611244     0.695260284
 N      -12.984234107    10.013579079     1.451332405
 C      -11.901264465     9.259651704     0.910315539
 C      -10.624751469     9.853242572     0.932767640
 C       -9.531448375     9.173061575     0.422637080
 C       -9.670809792     7.876875177    -0.097855536
 C      -10.936036720     7.288033158    -0.102189720
 C      -12.044565753     7.964502255     0.397581338
 C      -14.208518489     9.249233358     1.746484842
 C       -8.486063169     7.197400793    -0.626266658
 C       -8.501534251     5.962465515    -1.145997776
Si       -7.026804489     5.109035373    -1.806981745
 C       -5.802270991     6.294291148    -2.496572860
 C       -6.233024813     7.523693095    -3.008736470
 C       -5.315820272     8.431328893    -3.534357021
 C       -3.955155935     8.116801012    -3.590823384
 C       -3.528590705     6.879508330    -3.093041106
 C       -4.440401908     5.976909144    -2.551178683
 C       -2.961146371     9.036254265    -4.132508293
 C       -3.245192636    10.248304906    -4.637668722
 C       -2.257197467    11.173213468    -5.181006774
 C       -0.892783287    10.878346680    -5.227830894
 C        0.016100258    11.794883805    -5.757057171
 C       -0.423186617    13.025768423    -6.252955894
 C       -1.793212713    13.320139560    -6.216164999
 C       -2.697983607    12.401088872    -5.694466265
Si        0.755983067    14.250624398    -6.955622147
 C        2.526908953    13.775601342    -6.612005509
 C        0.512955022    14.378694423    -8.838434391
 C        0.359515593    15.940004913    -6.170784506
 C       -6.235363270     4.109576462    -0.391597932
 C       -7.557684628     3.923446490    -3.193759484
 C       -4.285948650    12.960258104     1.620763094
 C       -3.193594505    13.620560210    -1.183666359
 C       -0.620057024    -0.913515752    -1.550901118
 C       -0.658509879    -0.906438459     1.538920638
 H        1.190841163     2.700977693    -0.540550936
 H        0.252159075     4.941743603    -0.530990741
 H       -3.605503903     3.365492899     0.548812522
 H       -2.710433370     1.104348147     0.539629033
 H       -3.408822656     5.663531114     0.281048156
 H       -0.630854005     6.789952386    -0.495765866
 H       -0.477239800     9.112820589    -0.754877649
 H       -1.425008889    11.353187468    -0.741062317
 H       -5.298665753     9.659368324     0.304349055
 H       -4.303717989     7.443803122     0.297669048
 H       -5.896006115    11.678286743    -1.864667088
 H       -7.040990759    13.205571433     0.607232055
 H       -9.322633699    13.586231081     0.643106646
 H      -11.558368300    13.422047076    -0.329500424
 H       -9.949130562    11.015204237    -3.545851160
 H       -7.701162709    11.379451942    -2.678077386
 H      -13.482803042    10.917260822    -3.849494108
 H      -12.102857082     9.984163608    -3.202777523
 H      -11.849358564    11.243380952    -4.458763412
 H      -14.887964393     9.889129761     2.336051583
 H      -13.952343860     8.381021379     2.379144011
 H      -14.750116714     8.893046048     0.857524979
 H      -10.501627374    10.853361904     1.346245122
 H       -8.551403589     9.655582985     0.427391738
 H      -11.069236499     6.282688751    -0.502434788
 H      -13.015859613     7.481144388     0.371652495
 H       -7.572746809     7.807414375    -0.559942919
 H       -9.428624998     5.372012552    -1.189024932
 H       -7.288071120     7.817946370    -3.005622462
 H       -5.670468229     9.391423265    -3.904335388
 H       -2.471483083     6.618961086    -3.118708353
 H       -4.043708306     5.028434225    -2.175762342
 H       -1.931064127     8.670736157    -4.098841125
 H       -4.276267982    10.613342837    -4.661992839
 H       -0.525783663     9.927753617    -4.844894530
 H        1.071617107    11.510620592    -5.764306906
 H       -2.193544400    14.265729542    -6.592644436
 H       -3.759620888    12.642196614    -5.682697651
 H      -13.294463452    13.147021493    -1.083501117
 H      -14.284321865    12.403954136    -2.343998204
 H      -14.800610593    10.790908930    -0.774089794
 H      -13.228288376    10.101117525    -1.153630767
 H      -12.325255429    11.862028116     0.712357185
 H      -14.021323941    11.836977796     1.253776003
 H        2.263229302    -1.029653446     0.040551001
 H        2.260499019     0.543650701     0.877351197
 H        2.274433478     0.479376386    -0.906392616
 H        3.226429252    14.533730085    -7.007077922
 H        2.787793515    12.808582538    -7.076581379
 H        2.710635757    13.688983350    -5.525812825
 H        1.305797679    15.096256462    -9.198871968
 C        0.728461830    13.031181950    -9.551806263
 C       -0.859179106    14.940111438    -9.251906127
 H       -0.692550112    16.190794725    -6.494609584
 C        0.377944202    15.893768636    -4.631656109
 C        1.283748647    17.072424197    -6.651219326
 H       -5.217203901     3.798771504    -0.768316787
 C       -6.048719999     4.954965925     0.881067927
 C       -7.010029058     2.831687702    -0.024668324
 H       -8.296619645     3.207945100    -2.731368822
 C       -8.263314259     4.656666743    -4.348798138
 C       -6.386157162     3.103338687    -3.761920548
 H       -4.851886276    13.935746694     1.603495497
 C       -5.043658024    11.981151184     2.536271709
 C       -2.895954132    13.226492174     2.226049806
 H       -2.172702841    13.644381730    -0.702184653
 C       -3.018661659    13.204414289    -2.651494351
 C       -3.773789054    15.045831084    -1.136638249
 H       -0.137475706    -1.932747253    -1.519619641
 C       -2.146717964    -1.108565087    -1.580751075
 C       -0.187653439    -0.219681381    -2.855797432
 H       -1.782614850    -0.914788570     1.435538490
 C       -0.184383994    -2.367006726     1.641047917
 C       -0.312393562    -0.173367989     2.847656829
 H        1.721118560    12.597287699    -9.375558387
 H        0.639476715    13.162304591   -10.639789076
 H       -0.019173123    12.275294363    -9.271091215
 H       -1.063629866    15.937959073    -8.843855873
 H       -1.692141553    14.281370917    -8.968609015
 H       -0.908658365    15.041034269   -10.346020036
 H       -0.308319091    15.143685002    -4.212444477
 H        0.061536103    16.863443665    -4.221730271
 H        1.376192082    15.694922618    -4.219991829
 H        1.272447313    17.210794733    -7.740064295
 H        2.328303663    16.932293753    -6.342927559
 H        0.961356747    18.029922338    -6.216731150
 H       -5.490562654     5.886656955     0.714466445
 H       -5.492081972     4.386351584     1.639170287
 H       -7.005400830     5.232700653     1.348491045
 H       -7.107859712     2.126493724    -0.859743073
 H       -8.018543173     3.036456390     0.358456861
 H       -6.483910492     2.289100326     0.774279953
 H       -9.149148794     5.222452242    -4.030116409
 H       -8.612319339     3.932503962    -5.098212805
 H       -7.598954540     5.352868264    -4.881180311
 H       -5.878461232     2.486562702    -3.008645521
 H       -5.623859865     3.728888794    -4.249637890
 H       -6.750654154     2.410031012    -4.533065244
 H       -6.067608162    11.767412760     2.200244910
 H       -5.131253631    12.401732496     3.547560944
 H       -4.525102390    11.017654731     2.648452121
 H       -2.325990246    13.994598350     1.687891347
 H       -2.272505205    12.322559550     2.279430407
 H       -2.998203693    13.588508949     3.259147662
 H       -2.590060096    12.197757865    -2.776129914
 H       -2.326802813    13.889132646    -3.163883672
 H       -3.958008266    13.233660763    -3.219926936
 H       -3.841023962    15.455985793    -0.121335296
 H       -4.771916323    15.116276864    -1.591340717
 H       -3.128638062    15.732038309    -1.704045021
 H       -2.531443452    -1.669867944    -0.719974969
 H       -2.433464310    -1.683606473    -2.473303589
 H       -2.696890206    -0.158584957    -1.639044132
 H        0.900263452    -0.111599389    -2.952996391
 H       -0.633513812     0.778141121    -2.976641087
 H       -0.516026611    -0.810210425    -3.723108290
 H       -0.456235797    -2.974665377     0.768373085
 H       -0.650581412    -2.852768480     2.510644245
 H        0.900560586    -2.455664956     1.785610052
 H       -0.672815531     0.865126299     2.871320128
 H        0.765370577    -0.153892520     3.057035024
 H       -0.784198623    -0.681517874     3.700700859

