187   

Si        0.000000000     0.000000000     0.000000000
 C        1.865306532     0.000000000     0.000000000
 C       -0.683991163     1.708974526     0.000000000
 C        0.132675495     2.817103162    -0.245568873
 C       -0.400625104     4.106137811    -0.242181280
 C       -1.760979465     4.315662532    -0.002470264
 C       -2.578873040     3.203699487     0.240048585
 C       -2.048795908     1.916733962     0.242446213
 C       -2.364133852     5.644114069     0.011075431
 C       -1.697655283     6.791770681    -0.200211272
 C       -2.306630394     8.117804473    -0.185391134
 C       -1.496405098     9.235974300    -0.421456344
 C       -2.034952819    10.520587845    -0.416751648
 C       -3.397728631    10.717545562    -0.164760507
 C       -4.209254369     9.601690081     0.071181447
 C       -3.669177354     8.316958813     0.055354963
Si       -4.138216230    12.400978212    -0.151776045
 C       -5.526143884    12.522198114     1.034585375
 C       -5.610960640    11.800725016     2.160131748
 C       -6.717222317    11.890686802     3.115351794
 C       -6.683978358    11.076701558     4.258742533
 C       -7.704040667    11.121954674     5.193997606
 C       -8.780697246    12.016498223     5.025578427
 C       -8.820233073    12.827712544     3.882411088
 C       -7.806936794    12.744527736     2.932639790
 N       -9.790097467    12.009768439     6.021351156
 C       -9.336047678    12.384590463     7.375779715
 C      -11.077634849    12.608872605     5.640133009
 C       -9.350068337    13.886253238     7.711515390
 C       -8.339681907    14.731016342     6.912914915
 N       -6.933919477    14.609965240     7.330252728
 C       -6.634417335    14.759611372     8.689515966
 C       -7.366932717    15.683429474     9.468662033
 C       -7.083737343    15.844054183    10.814769253
 C       -6.037354329    15.138884016    11.426771570
 C       -5.294212401    14.248228978    10.646902940
 C       -5.575875122    14.058862314     9.300863102
 C       -6.147285207    13.637377035     6.561559405
 C       -5.781046693    15.346104580    12.852793140
 C       -4.810676437    14.727203766    13.538035916
Si       -4.444544751    14.945611554    15.314443581
 C       -4.322465679    13.300483307    16.129378292
 C       -4.909044226    12.174514367    15.538965025
 C       -4.817953012    10.928296592    16.153919526
 C       -4.149944399    10.778587666    17.376163209
 C       -3.571133107    11.906267344    17.966029078
 C       -3.656523527    13.154527054    17.351167248
 C       -4.081634741     9.452200328    17.980620547
 C       -3.469848627     9.171523190    19.143744899
 C       -3.401653636     7.845139629    19.748002127
 C       -3.979779749     6.717668631    19.159247246
 C       -3.890454324     5.467880940    19.772055375
 C       -3.212959736     5.317551042    20.986046819
 C       -2.631363931     6.446882519    21.578392378
 C       -2.727756295     7.694015284    20.967528493
Si       -3.086532266     3.674774178    21.806965273
 C       -3.559009084     2.290833290    20.648887009
 C       -1.296312968     3.442987492    22.411239427
 C       -4.243827102     3.632721334    23.317538124
 C       -2.783927126    15.859709755    15.484099224
 C       -5.795749888    15.967974327    16.177804391
 C       -2.825995951    13.694949745     0.319696233
 C       -4.794705323    12.796823947    -1.891865761
 C       -0.605457749    -0.926925206    -1.548589041
 C       -0.657615126    -0.902583891     1.541591553
 H        1.203652847     2.715757651    -0.441564735
 H        0.257120182     4.952379075    -0.431817996
 H       -3.641277471     3.345031230     0.429830902
 H       -2.735034559     1.088548463     0.441228014
 H       -3.439775439     5.654828362     0.211910138
 H       -0.622672464     6.782836780    -0.401524673
 H       -0.433472416     9.102775756    -0.613172825
 H       -1.354649666    11.353735479    -0.612822740
 H       -5.282466206     9.695556073     0.269792334
 H       -4.322174692     7.465080784     0.236955787
 H       -6.299002899    13.257831217     0.765694462
 H       -4.845786228    11.067656998     2.454378455
 H       -5.851731205    10.386764521     4.406435186
 H       -7.688842076    10.457734903     6.056228895
 H       -9.641323803    13.519992772     3.723389219
 H       -7.863867825    13.372477386     2.042704760
 H      -11.819543033    12.388776055     6.427884586
 H      -11.437534048    12.129380583     4.712006908
 H      -11.047425675    13.698295086     5.483471029
 H       -6.448069832    13.660455106     5.497424742
 H       -6.253063421    12.600056058     6.919226732
 H       -5.079847489    13.923763496     6.595947176
 H       -8.155572865    16.274419242     9.013304980
 H       -7.676664920    16.545502934    11.402488967
 H       -4.474530597    13.686132471    11.098135948
 H       -4.978092735    13.352601360     8.733993780
 H       -6.470369668    16.064185928    13.315821669
 H       -4.128470657    14.018036815    13.039998746
 H       -5.447540629    12.233344868    14.587360495
 H       -5.274630728    10.062737383    15.677846453
 H       -3.046498576    11.817189104    18.915337944
 H       -3.183386081    13.999510079    17.858953575
 H       -4.578422847     8.663093464    17.408565800
 H       -2.973124246     9.960844640    19.715583823
 H       -4.508738493     6.806685564    18.212134234
 H       -4.363675581     4.623241836    19.263801532
 H       -2.088991924     6.389783977    22.526394021
 H       -2.271299929     8.559680316    21.443814755
 H      -10.005541654    11.847062801     8.090224498
 H       -8.314926931    11.975750131     7.545638143
 H      -10.364127753    14.300133870     7.558759321
 H       -9.153053302    13.999421750     8.798967157
 H       -8.414077133    14.487635153     5.828151782
 H       -8.615946098    15.810221713     6.997495597
 H        2.261962881    -1.030377839     0.038978788
 H        2.262525852     0.541493183     0.877722831
 H        2.274819705     0.479849010    -0.906113028
 H       -3.436574407     1.306402860    21.134954897
 H       -2.922685570     2.296034272    19.745254051
 H       -4.610254654     2.371327352    20.321395364
 H       -1.104641756     4.282801208    23.140915365
 C       -1.065174332     2.113862054    23.151924034
 C       -0.269432402     3.567050286    21.271027918
 H       -4.153135162     2.591348791    23.742448302
 C       -3.853613676     4.632756276    24.420657851
 C       -5.717745373     3.866753844    22.938685875
 H       -2.614181509    15.995303930    16.591214808
 C       -1.604616040    15.048411538    14.918630078
 C       -2.795283056    17.252415470    14.829872300
 H       -5.900570667    16.915895485    15.574484411
 C       -7.158249847    15.250432190    16.184725481
 C       -5.437420435    16.360440583    17.622279858
 H       -2.018758682    13.623499313    -0.465264469
 C       -3.366611676    15.135962731     0.314256156
 C       -2.189442576    13.406296168     1.691114681
 H       -5.225108242    13.838123933    -1.834954411
 C       -3.694743657    12.791501850    -2.967450486
 C       -5.919488022    11.837801197    -2.321354275
 H       -0.100123450    -1.935389592    -1.515878733
 C       -2.126755375    -1.158428170    -1.577060226
 C       -0.189093147    -0.226845471    -2.855267509
 H       -1.782375115    -0.900317691     1.444703781
 C       -0.195917205    -2.367414404     1.639398954
 C       -0.297134174    -0.174261263     2.849094464
 H       -1.717741206     1.982921880    24.024737340
 H       -0.033532360     2.070309793    23.530652816
 H       -1.191336552     1.235500213    22.505227480
 H       -0.338898291     4.519333971    20.725858615
 H       -0.347195180     2.757667608    20.533124012
 H        0.751410753     3.519257577    21.676234829
 H       -2.841616026     4.474643022    24.814269829
 H       -4.535037994     4.530270271    25.277876016
 H       -3.929694569     5.679572006    24.094133880
 H       -6.102754468     3.139360964    22.212592110
 H       -5.899555577     4.871760302    22.531301488
 H       -6.354764402     3.776756132    23.830292086
 H       -1.505788106    14.050918059    15.369549649
 H       -0.658105320    15.570449672    15.118732091
 H       -1.659174736    14.916542593    13.829208838
 H       -3.560116561    17.921977194    15.243751701
 H       -2.942918522    17.212239568    13.740894356
 H       -1.829297066    17.751938996    14.990736019
 H       -7.512347389    14.969622497    15.183441675
 H       -7.928795711    15.906923480    16.612446923
 H       -7.155507821    14.338173207    16.798736285
 H       -4.525989062    16.967221486    17.695672833
 H       -5.318546064    15.491764547    18.285096874
 H       -6.244790968    16.967305520    18.057427929
 H       -3.769923486    15.447181936    -0.657721973
 H       -2.555910697    15.841302736     0.548794974
 H       -4.145888602    15.303510655     1.070916466
 H       -1.726741527    12.411825069     1.757917071
 H       -2.905447393    13.493695166     2.521352766
 H       -1.389523123    14.131823069     1.896203863
 H       -2.897060785    13.521509607    -2.779682593
 H       -4.124186210    13.051834741    -3.945887675
 H       -3.223804283    11.805876219    -3.093612859
 H       -6.774398320    11.829785867    -1.631704733
 H       -5.575538485    10.799508225    -2.435644712
 H       -6.316937360    12.138021003    -3.301388322
 H       -2.497374430    -1.728783531    -0.716008997
 H       -2.400770427    -1.739574334    -2.469775627
 H       -2.700060430    -0.222541574    -1.635185547
 H        0.896049685    -0.094859600    -2.953747906
 H       -0.656721617     0.760668852    -2.978320676
 H       -0.505026578    -0.826481134    -3.720976808
 H       -0.478856567    -2.972028087     0.768089247
 H       -0.661062745    -2.849637261     2.511589999
 H        0.888979395    -2.466324685     1.777122397
 H       -0.647081393     0.867659158     2.876027598
 H        0.781733423    -0.166119808     3.053183471
 H       -0.769834136    -0.678618851     3.703976118

