187   

Si        0.000000000     0.000000000     0.000000000
 C        1.865178763     0.000000000     0.000000000
 C       -0.683427517     1.709155801     0.000000000
 C        0.122584377     2.812586905    -0.296852347
 C       -0.410037570     4.101883949    -0.292787097
 C       -1.758933467     4.316548414     0.001268962
 C       -2.566298360     3.209236394     0.294825680
 C       -2.037295405     1.921811803     0.293960382
 C       -2.361232080     5.645363901     0.017879015
 C       -1.704930177     6.789115509    -0.241299584
 C       -2.313315301     8.115523711    -0.223048663
 C       -3.664612007     8.318659745     0.072638673
 C       -4.206940169     9.602646338     0.079457512
 C       -3.404482792    10.714146168    -0.200579039
 C       -2.050675892    10.514922026    -0.496526779
 C       -1.514319620     9.229483005    -0.511123958
Si       -4.119723284    12.408035199    -0.191633156
 C       -2.783744358    13.645716138    -0.024940820
 C       -2.606848206    14.725246907    -0.796838981
 C       -1.517960809    15.691494907    -0.624105589
 C       -1.445765939    16.780153189    -1.501089714
 C       -0.435023415    17.726287413    -1.383440327
 C        0.512786159    17.616679617    -0.360737479
 C        0.444009739    16.531314429     0.527613598
 C       -0.557120767    15.579075437     0.387659310
 N        1.592936402    18.537026675    -0.151940046
 C        2.167757649    19.134735524    -1.370268046
 C        1.287818983    19.517077858     0.907603534
 C        1.486619033    20.410724126    -1.901867988
 C        1.800655986    20.617408572    -3.398349729
 N        0.686670608    21.210729358    -4.173459479
 C       -0.504106422    20.433627802    -4.115348179
 C       -0.442579749    19.109987578    -4.595573010
 C       -1.569469860    18.305163132    -4.564869545
 C       -2.801055922    18.804914357    -4.113443134
 C       -2.862056921    20.125471279    -3.664479691
 C       -1.731198397    20.935731565    -3.661160101
 C        0.527856435    22.650917728    -3.906932997
 C       -3.963430294    17.913866764    -4.100216390
 C       -5.182670078    18.286302405    -3.690367599
Si       -6.671040519    17.226767963    -3.648767245
 C       -8.094994155    18.055375863    -4.458425699
 C       -7.904555207    19.177787153    -5.270086860
 C       -8.992271086    19.801177469    -5.881430495
 C      -10.289121626    19.313158997    -5.701696585
 C      -10.476292899    18.184622172    -4.891670111
 C       -9.393643456    17.561234505    -4.277863240
 C      -11.456542973    19.932066540    -6.320819774
 C      -11.417566485    21.014172709    -7.116866259
 C      -12.585666043    21.632346488    -7.735539410
 C      -13.882240145    21.144713389    -7.552937316
 C      -14.970992862    21.766868389    -8.163632716
 C      -14.784790244    22.888869159    -8.977336098
 C      -13.485140763    23.379725952    -9.162503979
 C      -12.401232138    22.760108248    -8.546737681
Si      -16.212701462    23.719887673    -9.789522697
 C      -17.737806638    22.646361892    -9.760488735
 C      -16.590725319    25.350024883    -8.882243730
 C      -15.730395827    24.126712590   -11.585546764
 C       -6.334524024    15.534519269    -4.443424263
 C       -7.071988372    16.957777208    -1.800709182
 C       -5.120573811    12.685144900    -1.784700523
 C       -5.295539527    12.571509072     1.296435567
 C       -0.612114100    -0.923246314    -1.548099770
 C       -0.655046114    -0.906191523     1.540864941
 H        1.184580991     2.707012119    -0.534996275
 H        0.239283504     4.944419566    -0.523716296
 H       -3.619724761     3.354479165     0.526676765
 H       -2.715539954     1.097451989     0.531842936
 H       -3.427120253     5.659889578     0.264529038
 H       -0.639441944     6.776819175    -0.488307789
 H       -4.307502860     7.470232996     0.299466729
 H       -5.270666007     9.698138953     0.314236145
 H       -1.378526362    11.348212445    -0.726086643
 H       -0.460561003     9.092667093    -0.747069224
 H       -2.100910760    13.431502362     0.814794216
 H       -3.269480895    14.971385133    -1.638339636
 H       -2.192353759    16.897794478    -2.289831924
 H       -0.398451016    18.556079501    -2.087580383
 H        1.189292930    16.439535328     1.315723098
 H       -0.589786908    14.737242632     1.079036237
 H        2.184100881    20.128213664     1.103071602
 H        1.043603172    18.974428767     1.837849676
 H        0.445887616    20.185726691     0.670010120
 H        1.475400826    23.162286453    -4.151157443
 H        0.260408128    22.892520009    -2.866808231
 H       -0.241995149    23.065651918    -4.581252487
 H        0.494442895    18.722014347    -4.989534795
 H       -1.498976699    17.275521150    -4.917969813
 H       -3.805579477    20.536437267    -3.302293750
 H       -1.813013325    21.953020655    -3.290447310
 H       -3.740502950    16.904312076    -4.469540926
 H       -5.370776740    19.308424909    -3.320195845
 H       -6.911469432    19.600667978    -5.452780937
 H       -8.819455482    20.675583056    -6.506468000
 H      -11.478516066    17.788569437    -4.739907908
 H       -9.599451366    16.684895261    -3.656502413
 H      -12.408406614    19.444246770    -6.091137819
 H      -10.465774505    21.501908509    -7.347417883
 H      -14.053869379    20.269913801    -6.928387084
 H      -15.961249270    21.339721560    -7.982903466
 H      -13.278994637    24.252995983    -9.787816401
 H      -11.399586284    23.156992834    -8.701260485
 H        3.234707642    19.356722978    -1.130188150
 H        2.186841486    18.346607606    -2.158197960
 H        0.391842603    20.346421563    -1.745308787
 H        1.808408069    21.289058938    -1.316896107
 H        2.695341079    21.264955151    -3.521105679
 H        2.061878688    19.648952609    -3.883924694
 H        2.262741876    -1.029515960     0.049166143
 H        2.261387719     0.550632450     0.872584578
 H        2.274896145     0.471439414    -0.910437736
 H      -18.577218068    23.132928130   -10.288661605
 H      -18.071487129    22.435706675    -8.729431204
 H      -17.549331308    21.677935704   -10.258666405
 H      -17.500654126    25.779653809    -9.392644683
 C      -16.934527057    25.132399172    -7.397256345
 C      -15.456214538    26.385696494    -8.979110389
 H      -14.839315889    24.816554386   -11.518140508
 C      -15.300598328    22.878530966   -12.377355110
 C      -16.835307535    24.860152245   -12.366506770
 H       -5.425403464    15.118335017    -3.916224100
 C       -7.485883594    14.529083812    -4.263107084
 C       -6.012035598    15.643845112    -5.944754888
 H       -7.722634931    16.039046026    -1.749267295
 C       -5.811999390    16.709236476    -0.954903568
 C       -7.855042424    18.129092324    -1.181669742
 H       -5.477285477    13.756748156    -1.746634892
 C       -4.272713614    12.508078887    -3.057282354
 C       -6.360328575    11.778832190    -1.886579537
 H       -6.089036028    11.782547762     1.149661141
 C       -4.588801395    12.289671025     2.634225454
 C       -5.995338902    13.938734824     1.376942661
 H       -0.117412648    -1.936790295    -1.514052247
 C       -2.135972880    -1.137795888    -1.575795316
 C       -0.188702374    -0.228885476    -2.855516066
 H       -1.779702210    -0.908741817     1.443464614
 C       -0.187909450    -2.369410008     1.637796622
 C       -0.297783846    -0.177686413     2.849133373
 H      -17.792951799    24.466578679    -7.241032623
 H      -17.199904959    26.090463343    -6.927596040
 H      -16.090994819    24.729577824    -6.818227539
 H      -15.207540623    26.664687264   -10.010845420
 H      -14.531516673    26.052867399    -8.486735935
 H      -15.753492415    27.316169657    -8.473641306
 H      -14.473235223    22.328907149   -11.905891869
 H      -14.945885852    23.169279610   -13.376479948
 H      -16.121715609    22.167006889   -12.536109399
 H      -17.148181072    25.801704335   -11.896973669
 H      -17.733437149    24.246449000   -12.516244038
 H      -16.472919311    25.123567162   -13.370941953
 H       -7.716954768    14.312398136    -3.211996246
 H       -7.217272726    13.565917675    -4.722213385
 H       -8.415456727    14.848176766    -4.754541475
 H       -5.175103974    16.318481872    -6.170612005
 H       -6.871800315    15.981990396    -6.541113240
 H       -5.731468760    14.659040699    -6.344199204
 H       -5.219172254    15.849601859    -1.292804249
 H       -6.090726079    16.501542880     0.088116064
 H       -5.137998022    17.578232188    -0.921407223
 H       -8.800925111    18.345261000    -1.697137748
 H       -7.278174567    19.063389811    -1.151133548
 H       -8.120109047    17.896518450    -0.140446595
 H       -3.381261903    13.149273047    -3.086750213
 H       -4.868899591    12.763256466    -3.945714945
 H       -3.934677095    11.472096859    -3.202046237
 H       -7.074673466    11.923127401    -1.066215511
 H       -6.108096069    10.709953586    -1.928954630
 H       -6.909984258    11.997136409    -2.814235946
 H       -4.100516921    11.305523004     2.670898832
 H       -5.319507196    12.298380858     3.455546943
 H       -3.832675096    13.045615936     2.887076526
 H       -6.591345060    14.174999056     0.485206350
 H       -5.292111555    14.767804229     1.541957383
 H       -6.693449423    13.955079633     2.225982173
 H       -2.512325951    -1.704767114    -0.715015308
 H       -2.417312049    -1.714804617    -2.468839185
 H       -2.698627409    -0.195228395    -1.631975351
 H        0.897902799    -0.110281565    -2.954920163
 H       -0.644659178     0.764089740    -2.978616685
 H       -0.512637309    -0.824993589    -3.720686040
 H       -0.468663454    -2.974312983     0.765976430
 H       -0.651198704    -2.854040636     2.509579437
 H        0.897361440    -2.464327123     1.775376790
 H       -0.650784233     0.863214536     2.876437620
 H        0.781025666    -0.166329391     3.053570641
 H       -0.769195252    -0.684013776     3.703485330

