187   

Si        0.000000000     0.000000000     0.000000000
 C        1.865472874     0.000000000     0.000000000
 C       -0.673687785     1.712215308     0.000000000
 C        0.042874351     2.740657963    -0.622487711
 C       -0.452065166     4.043292726    -0.632256200
 C       -1.666415457     4.350868962    -0.012233620
 C       -2.384614236     3.319802582     0.605170855
 C       -1.900807297     2.013754209     0.602765064
 C       -2.216524986     5.702244322    -0.001584736
 C       -1.622748995     6.763050425    -0.574793124
 C       -2.153309310     8.121171156    -0.576733504
 C       -1.415030487     9.124141259    -1.218987589
 C       -1.874819353    10.438002620    -1.251191227
 C       -3.099464821    10.771617818    -0.661898745
 C       -3.839355672     9.772937668    -0.018390992
 C       -3.362800504     8.464104433     0.034685258
Si       -3.726989989    12.499747642    -0.691981180
 C       -5.552082453    12.425372873    -0.660350752
 C       -6.356082620    13.106553875     0.165239553
 C       -7.816507479    13.004062203     0.141690464
 C       -8.562406219    13.764810812     1.054039387
 C       -9.945939417    13.701557071     1.070203501
 C      -10.624857689    12.820917564     0.203621603
 C       -9.882479452    12.060146655    -0.710960299
 C       -8.497789489    12.178578878    -0.755940507
 N      -12.043483349    12.797875596     0.263238098
 C      -12.583316994    12.474118902     1.603566419
 C      -12.717013315    12.038503680    -0.805587645
 C      -12.128872442    11.117184525     2.175622320
 C      -10.935381510    11.280787637     3.138301465
 N      -10.316458408    10.008077723     3.552066573
 C       -9.685131425     9.277974213     2.513397243
 C       -8.717070481     9.930679718     1.724458169
 C       -8.075208729     9.255350012     0.698822734
 C       -8.323231984     7.895198484     0.463035843
 C       -9.260592730     7.244530603     1.268778354
 C       -9.936075321     7.917158560     2.280834379
 C      -11.174769990     9.234185279     4.464945045
 C       -7.625344371     7.213143994    -0.631761070
 C       -7.810833504     5.918205128    -0.916389025
Si       -7.037230155     4.909649509    -2.228419934
 C       -6.397879667     3.381531457    -1.420836090
 C       -6.138844514     3.391182597    -0.045133061
 C       -5.654973663     2.250429777     0.592326318
 C       -5.410189376     1.078819924    -0.129283229
 C       -5.662411673     1.073785492    -1.507228984
 C       -6.147385940     2.212066776    -2.147766310
 C       -4.903708027    -0.134959847     0.503328775
 C       -4.625919861    -0.248421357     1.813405054
 C       -4.119615203    -1.453841503     2.459636705
 C       -3.867638262    -2.638075023     1.762221842
 C       -3.383242500    -3.766042563     2.424596823
 C       -3.128017024    -3.729455703     3.799190379
 C       -3.375739399    -2.541383684     4.499946869
 C       -3.866724846    -1.419937747     3.837726817
Si       -2.488457848    -5.209019325     4.689538098
 C       -1.799393289    -6.469871135     3.500275907
 C       -1.132344462    -4.636904873     5.897729448
 C       -3.897133030    -6.002436561     5.691809894
 C       -8.392353756     4.431281541    -3.478560142
 C       -5.669641628     5.820260897    -3.173696642
 C       -3.039031769    13.437352800     0.810196823
 C       -3.176710359    13.379167665    -2.284315411
 C       -0.630259528    -0.877225165    -1.570016994
 C       -0.657511669    -0.959228582     1.502010371
 H        1.002406867     2.563641153    -1.115596657
 H        0.122390911     4.823617747    -1.127238106
 H       -3.341614347     3.534797189     1.079137981
 H       -2.515769645     1.245677554     1.084098322
 H       -3.172302887     5.807600472     0.521096883
 H       -0.665540763     6.648879992    -1.092249225
 H       -0.468126559     8.877904437    -1.695086140
 H       -1.250924317    11.180017704    -1.755756573
 H       -4.799900245     9.981929187     0.465932051
 H       -3.944877799     7.707337925     0.560235824
 H       -5.965869965    11.746149256    -1.425784526
 H       -5.979986088    13.795534448     0.931750862
 H       -8.049891478    14.427710557     1.751357890
 H      -10.513242850    14.336115185     1.746760508
 H      -10.373635356    11.367517638    -1.388476028
 H       -7.943718640    11.597529654    -1.495203394
 H      -13.803413588    12.223047265    -0.744304303
 H      -12.546451724    10.950836684    -0.765982005
 H      -12.382657696    12.417326026    -1.787696197
 H      -11.487853555     9.883573428     5.300563225
 H      -10.586336878     8.408394122     4.903697425
 H      -12.076880580     8.816934467     3.991647677
 H       -8.480422948    10.978340989     1.910961200
 H       -7.347348381     9.790025601     0.085318345
 H       -9.479001034     6.187736998     1.108901333
 H      -10.667565106     7.376480726     2.872566988
 H       -6.934723955     7.857230511    -1.188836544
 H       -8.527154101     5.315771945    -0.326993350
 H       -6.303876214     4.281647701     0.571459954
 H       -5.471729109     2.280409441     1.665051997
 H       -5.473379085     0.173600578    -2.088401888
 H       -6.321096402     2.152940229    -3.225242389
 H       -4.760289869    -0.981075941    -0.174579117
 H       -4.775776233     0.599892334     2.488664731
 H       -4.055633409    -2.692856630     0.691417102
 H       -3.209728768    -4.665237715     1.827172132
 H       -3.194451279    -2.454207750     5.574929673
 H       -4.053205059    -0.506424608     4.399656514
 H      -12.304267719    13.303105907     2.292131115
 H      -13.694016103    12.505011025     1.536956009
 H      -12.968507084    10.625937454     2.697352832
 H      -11.848485373    10.428933835     1.353982589
 H      -10.143413792    11.908202039     2.666090909
 H      -11.250530428    11.825224956     4.055713277
 H        2.262319106    -1.029098798     0.055216440
 H        2.258505981     0.554998372     0.871309605
 H        2.278219087     0.468396180    -0.909594854
 H       -1.376189503    -7.336153339     4.039609725
 H       -0.990376823    -6.034895252     2.885578853
 H       -2.575077717    -6.853029328     2.814493540
 H       -1.641341021    -3.943024849     6.628352833
 C       -0.505520760    -5.789548948     6.702246680
 C       -0.011634842    -3.845305016     5.200032753
 H       -3.450701460    -6.919184158     6.175140554
 C       -4.444595076    -5.094278073     6.807530894
 C       -5.070833462    -6.455082794     4.803991929
 H       -7.878732442     3.814450679    -4.271263252
 C       -9.501434523     3.568025543    -2.851265319
 C       -9.033885267     5.650786682    -4.163462793
 H       -6.138226075     6.777907818    -3.545826177
 C       -4.476090889     6.185732911    -2.280176927
 C       -5.146486787     5.038774707    -4.393208752
 H       -3.539471755    14.448568488     0.803969419
 C       -3.377263856    12.741294341     2.141369189
 C       -1.517526369    13.658531797     0.739898669
 H       -2.048775995    13.400274828    -2.255008347
 C       -3.605164866    12.623202794    -3.555012446
 C       -3.676707532    14.831855652    -2.372733037
 H       -0.135129211    -1.889989843    -1.578830243
 C       -2.154973837    -1.088660420    -1.572765941
 C       -0.232338891    -0.137841334    -2.860608334
 H       -1.783653529    -0.975757716     1.388329314
 C       -0.171212397    -2.418757592     1.546487749
 C       -0.336826461    -0.283396372     2.846821689
 H       -1.238161291    -6.363979026     7.283549338
 H        0.216962445    -5.390202648     7.429093668
 H        0.051596719    -6.497036079     6.073826539
 H       -0.377025255    -2.959360883     4.659704488
 H        0.565598538    -4.451666409     4.489672195
 H        0.707663014    -3.473860681     5.944051905
 H       -3.684940867    -4.801857320     7.543509913
 H       -5.228447427    -5.622035388     7.370324714
 H       -4.911517187    -4.177269466     6.421153191
 H       -4.779218714    -7.174322875     4.027924515
 H       -5.578711241    -5.616134744     4.306877528
 H       -5.834295789    -6.956963273     5.415762907
 H       -9.123124274     2.653921203    -2.372453815
 H      -10.206397763     3.238217502    -3.627418923
 H      -10.097012228     4.111871520    -2.105508765
 H       -8.312812569     6.272271720    -4.710103112
 H       -9.569699076     6.303573132    -3.459636433
 H       -9.776840010     5.320019256    -4.902945135
 H       -4.751798918     6.780812204    -1.398669810
 H       -3.750249154     6.794750696    -2.839156337
 H       -3.920375629     5.302964761    -1.928098495
 H       -5.918879817     4.825047677    -5.141607886
 H       -4.667995250     4.087959331    -4.117919433
 H       -4.374051186     5.627831656    -4.909683485
 H       -4.453240458    12.576829172     2.292244256
 H       -3.036584478    13.356249563     2.986050156
 H       -2.878648663    11.766884013     2.250337509
 H       -1.201504895    14.242253489    -0.133997322
 H       -0.947566603    12.718431043     0.740200679
 H       -1.178299714    14.220587862     1.622335764
 H       -3.252742895    11.582472984    -3.583564305
 H       -3.185044619    13.113755127    -4.444610078
 H       -4.694461062    12.609259952    -3.697316405
 H       -3.338270973    15.460537156    -1.538960239
 H       -4.772539815    14.905326172    -2.421625561
 H       -3.296104922    15.305834823    -3.288933907
 H       -2.500965122    -1.719851966    -0.743633847
 H       -2.464062349    -1.593715813    -2.498288447
 H       -2.716633518    -0.142774305    -1.534317638
 H        0.851377888    -0.009799687    -2.973737720
 H       -0.696584653     0.856158086    -2.941195317
 H       -0.567502434    -0.705926473    -3.739575923
 H       -0.405884839    -2.986100054     0.637241328
 H       -0.673291901    -2.949352467     2.370351942
 H        0.906394621    -2.506926298     1.731280379
 H       -0.673522624     0.761237328     2.900133533
 H        0.732938085    -0.299922540     3.090016797
 H       -0.853927117    -0.813263353     3.661138695

