187   

Si        0.000000000     0.000000000     0.000000000
 C        1.866516565     0.000000000     0.000000000
 C       -0.648373707     1.722071624     0.000000000
 C        0.002719183     2.691251167     0.772912549
 C       -0.459678087     4.004857582     0.797397848
 C       -1.581487615     4.382116811     0.053074422
 C       -2.236150839     3.410351863    -0.712381655
 C       -1.780662893     2.093605105    -0.733372891
 C       -2.090920127     5.749203357     0.057125418
 C       -1.541267068     6.753379572     0.761952901
 C       -2.029863096     8.127252636     0.783774787
 C       -1.352601737     9.069377957     1.567796420
 C       -1.783136789    10.392898895     1.619323689
 C       -2.909784977    10.800450935     0.896609693
 C       -3.588855803     9.860266539     0.112273311
 C       -3.147908737     8.540016351     0.053775638
Si       -3.505669272    12.540773699     0.942248511
 C       -4.048598245    13.012444113    -0.738186252
 C       -3.497334916    12.482739449    -1.838161630
 C       -3.893686275    12.824547874    -3.204278010
 C       -3.231861939    12.193266432    -4.267388181
 C       -3.569298202    12.481546308    -5.580762356
 C       -4.565073587    13.433526040    -5.849181652
 C       -5.213173657    14.086357512    -4.795726988
 C       -4.866319419    13.787770878    -3.482327384
 N       -4.851089862    13.670207761    -7.235604115
 C       -5.755220659    12.637384377    -7.788947305
 C       -5.285465649    15.045009693    -7.540020533
 C       -7.194344854    12.618595594    -7.227081104
 C       -7.459559433    11.488872551    -6.210534036
 N       -7.361962824    11.953756520    -4.803570335
 C       -7.161804323    10.925848774    -3.849510925
 C       -6.130478293     9.984377715    -4.052100299
 C       -5.914452216     8.969460399    -3.133450755
 C       -6.650076361     8.899959910    -1.940237002
 C       -7.636663659     9.863161268    -1.719646272
 C       -7.890233504    10.865320729    -2.648473801
 C       -8.407862419    12.934837326    -4.460133771
 C       -6.392413324     7.810714800    -0.993195180
 C       -7.046463696     7.667660667     0.167307673
Si       -6.837566000     6.369336392     1.444080564
 C       -6.290318428     4.745384794     0.770902895
 C       -6.265512198     4.503984997    -0.606441741
 C       -5.849534102     3.271007002    -1.106641981
 C       -5.470110808     2.240640053    -0.242945080
 C       -5.509238745     2.476001274     1.137651721
 C       -5.917145609     3.709305527     1.638735467
 C       -5.028768595     0.935979211    -0.724668467
 C       -4.948573983     0.590759694    -2.021103265
 C       -4.508615529    -0.710653790    -2.510741228
 C       -4.119992654    -1.745045290    -1.655935139
 C       -3.705553125    -2.975317598    -2.165736272
 C       -3.661205112    -3.194103842    -3.546204059
 C       -4.045562492    -2.156559998    -4.406286054
 C       -4.463446557    -0.931588413    -3.893754185
Si       -3.116560934    -4.812124098    -4.234927555
 C       -2.240672012    -5.834646603    -2.943292539
 C       -4.631446404    -5.774418432    -4.865782812
 C       -1.954910485    -4.478235210    -5.705642514
 C       -5.724273603     6.968207354     2.871727018
 C       -8.582293480     6.130944352     2.187012526
 C       -5.017925576    12.656471928     2.091144346
 C       -2.154912666    13.722728061     1.560192328
 C       -0.630812429    -0.933127665    -1.531646095
 C       -0.641551921    -0.898475983     1.550918041
 H        0.886106292     2.458490263     1.373698553
 H        0.064972674     4.739080616     1.405766870
 H       -3.123266958     3.678176799    -1.286039698
 H       -2.343289463     1.375274643    -1.339090125
 H       -2.979213684     5.913418584    -0.559834411
 H       -0.655655841     6.576997219     1.379567264
 H       -0.479252924     8.768592133     2.142088797
 H       -1.213454097    11.084058732     2.245625503
 H       -4.477302423    10.121392647    -0.478363014
 H       -3.687899179     7.827189103    -0.568087547
 H       -4.847827062    13.763763162    -0.794108848
 H       -2.698935450    11.726089677    -1.800348802
 H       -2.455082228    11.457283769    -4.061066425
 H       -3.061895833    11.989546028    -6.407596817
 H       -5.995194399    14.811372729    -4.994797316
 H       -5.379391710    14.297253630    -2.667928472
 H       -5.258923462    15.183626093    -8.634488580
 H       -4.563269898    15.755300037    -7.100419382
 H       -6.291629457    15.307248978    -7.181146526
 H       -8.444114386    13.729711976    -5.223305846
 H       -8.139301248    13.426039827    -3.506796696
 H       -9.415868941    12.498085258    -4.373997314
 H       -5.494945622    10.062320245    -4.931669366
 H       -5.133393735     8.233886489    -3.329769352
 H       -8.225076511     9.840613344    -0.801287291
 H       -8.672085783    11.585581789    -2.432024722
 H       -5.607149485     7.120462443    -1.325677999
 H       -7.815920135     8.405105936     0.459527181
 H       -6.576667263     5.258631585    -1.335548479
 H       -5.833730216     3.115093832    -2.183590485
 H       -5.212453218     1.689207936     1.828685996
 H       -5.928599425     3.832319162     2.726090202
 H       -4.751048082     0.226815290     0.061178158
 H       -5.225912290     1.302099096    -2.804321122
 H       -4.151919727    -1.600496196    -0.576631834
 H       -3.415875569    -3.746920965    -1.446969612
 H       -4.030018202    -2.269972419    -5.493795604
 H       -4.756979050    -0.138353180    -4.578378364
 H       -5.786964056    12.793241542    -8.890785469
 H       -5.263139014    11.651058708    -7.630680444
 H       -7.421452568    13.602526992    -6.773207861
 H       -7.906924988    12.511840837    -8.066140190
 H       -8.465781349    11.050330224    -6.402360638
 H       -6.726998491    10.666760071    -6.372170192
 H        2.265674027    -1.028572991    -0.039360533
 H        2.279954823     0.484660243     0.900752961
 H        2.256346607     0.543062346    -0.880381648
 H       -1.859925332    -6.777930246    -3.374003709
 H       -2.911210198    -6.098972078    -2.106965427
 H       -1.375834983    -5.289025912    -2.523489595
 H       -4.235659937    -6.769846499    -5.220348570
 C       -5.666349005    -6.039572007    -3.757029526
 C       -5.341591557    -5.095061382    -6.050417725
 H       -2.572221163    -3.915833614    -6.465283383
 C       -0.755170071    -3.591804789    -5.325674387
 C       -1.435712517    -5.761481255    -6.378148743
 H       -6.225279972     6.606108830     3.816491164
 C       -4.301709225     6.390480836     2.852355933
 C       -5.625752105     8.501628314     2.947108287
 H       -8.858404750     7.123669828     2.645302862
 C       -9.628709011     5.790836086     1.110808334
 C       -8.645964194     5.062518918     3.291279537
 H       -5.279873487    13.752031460     2.149533540
 C       -6.238605335    11.906493103     1.526997581
 C       -4.733029313    12.156347209     3.517626744
 H       -1.866045848    13.358869791     2.588498626
 C       -0.898559218    13.694606818     0.670330968
 C       -2.634518566    15.179972200     1.692239676
 H       -1.759479335    -0.930340875    -1.458852844
 C       -0.248336489    -0.247207761    -2.855526955
 C       -0.166764514    -2.400061757    -1.577891820
 H       -0.162960559    -1.919481137     1.535481164
 C       -0.227319598    -0.197055159     2.857478776
 C       -2.169701021    -1.087004380     1.555295336
 H       -5.259562777    -6.598947547    -2.904801528
 H       -6.495644543    -6.643564002    -4.152530399
 H       -6.118280540    -5.117104916    -3.364886144
 H       -4.692259442    -4.949540988    -6.922983563
 H       -5.775759712    -4.120500904    -5.785962310
 H       -6.179519681    -5.719358862    -6.393693674
 H       -1.050299392    -2.626952786    -4.887871769
 H       -0.163845863    -3.353471220    -6.221448334
 H       -0.066169621    -4.079450673    -4.623198715
 H       -2.237134158    -6.417891797    -6.740878694
 H       -0.787050986    -6.356957466    -5.722002671
 H       -0.828576025    -5.504567459    -7.258524123
 H       -4.263380907     5.295356405     2.901560199
 H       -3.730682695     6.757265034     3.716879372
 H       -3.732663812     6.694525905     1.961912802
 H       -6.596779333     9.006926691     3.005508662
 H       -5.069929895     8.927742612     2.094768214
 H       -5.068213386     8.798247376     3.847102792
 H       -9.689073660     6.536706641     0.306577480
 H      -10.630430065     5.739665023     1.559936430
 H       -9.453179108     4.813001157     0.639782846
 H       -7.973034138     5.260859190     4.135027081
 H       -8.427871094     4.051363867     2.918594378
 H       -9.660430560     5.019223547     3.713549179
 H       -6.541488806    12.255172028     0.529562520
 H       -7.107185830    12.050613196     2.183513395
 H       -6.079426837    10.819864158     1.457483527
 H       -3.920331730    12.699393953     4.016323684
 H       -4.487677920    11.084701762     3.552724479
 H       -5.623259903    12.289113700     4.148575381
 H       -0.459765725    12.693117233     0.561972982
 H       -0.113557690    14.329631483     1.103788513
 H       -1.085293996    14.081866181    -0.342112041
 H       -3.479854037    15.300383525     2.381281760
 H       -2.920274087    15.624249702     0.728604340
 H       -1.824056195    15.807259561     2.090614935
 H       -0.563501491     0.804215632    -2.910030153
 H       -0.743236613    -0.755739480    -3.696054944
 H        0.829463674    -0.281196933    -3.059461430
 H       -0.509020170    -2.990288925    -0.718786207
 H        0.922973134    -2.506344362    -1.649211699
 H       -0.581285729    -2.889811823    -2.471662137
 H        0.858672344    -0.086053833     2.968223547
 H       -0.564359400    -0.783476804     3.723736779
 H       -0.678422373     0.800183788     2.966076712
 H       -2.525959356    -1.699748257     0.716599801
 H       -2.716349187    -0.133272607     1.539029313
 H       -2.483064635    -1.606412195     2.471811676

