187   

Si        0.000000000     0.000000000     0.000000000
 C        1.865303664     0.000000000     0.000000000
 C       -0.669457412     1.715244917     0.000000000
 C        0.136607850     2.800350273    -0.358981814
 C       -0.376898940     4.097002791    -0.356813951
 C       -1.706289322     4.338388080    -0.000859487
 C       -2.514095191     3.249728209     0.354130771
 C       -2.004450307     1.954160678     0.352736015
 C       -2.285445283     5.677568920     0.015444476
 C       -1.621748755     6.802222758    -0.302288142
 C       -2.201989230     8.140956203    -0.285621336
 C       -1.395329738     9.230585498    -0.640613892
 C       -1.905937547    10.526230499    -0.639168149
 C       -3.241071945    10.759904247    -0.289017592
 C       -4.049146847     9.674368358     0.066514083
 C       -3.531817179     8.379803720     0.071761732
Si       -3.936813870    12.462958341    -0.280199625
 C       -5.757168521    12.339102637    -0.388525956
 C       -6.644135460    12.952233143     0.405001209
 C       -8.095019638    12.807959898     0.261414682
 C       -8.936488341    13.496755765     1.148842088
 C      -10.314324934    13.390286017     1.050861683
 C      -10.889695470    12.561251971     0.068658624
 C      -10.054615174    11.876659361    -0.824147138
 C       -8.673822720    12.019169964    -0.735270909
 N      -12.312373392    12.496820152     0.022081390
 C      -12.897165801    11.845304121     1.218800002
 C      -12.878056203    11.968606329    -1.232752290
 C      -12.323509862    10.450375620     1.532724429
 C      -11.281724713    10.503712010     2.669983255
 N      -10.280986483     9.423673429     2.615074285
 C      -10.764249650     8.104705207     2.590089208
 C      -11.909501855     7.768019963     3.344710274
 C      -12.400724263     6.473302715     3.332728735
 C      -11.750999353     5.456303577     2.617972390
 C      -10.600483889     5.785356351     1.896489712
 C      -10.104980219     7.082656460     1.881009181
 C       -9.136560237     9.735835965     1.745019623
 C      -12.312843848     4.104833266     2.638901179
 C      -11.777441237     3.059754136     1.994494822
Si      -12.434270840     1.355170898     1.985600844
 C      -12.549567820     0.736865786     0.256794100
 C      -12.544016047     1.630797159    -0.818995880
 C      -12.631435421     1.161540065    -2.129189359
 C      -12.736663463    -0.206946409    -2.392161641
 C      -12.747857467    -1.099927436    -1.312202128
 C      -12.656113401    -0.635400839    -0.002865037
 C      -12.830535815    -0.743433034    -3.745775511
 C      -12.830892935    -0.000900072    -4.865867653
 C      -12.924858538    -0.539232239    -6.218860643
 C      -13.025445085    -1.908073761    -6.480362754
 C      -13.113174842    -2.379614220    -7.790086429
 C      -13.107968386    -1.489602278    -8.868621189
 C      -13.007607163    -0.115947398    -8.609017293
 C      -12.914949422     0.351244729    -7.300979914
Si      -13.223035203    -2.095868811   -10.602837287
 C      -13.725061724    -3.891143135   -10.670112913
 C      -14.495240331    -1.022577252   -11.526727353
 C      -11.533163751    -1.900721629   -11.456984114
 C      -11.246072955     0.242101479     2.971535221
 C      -14.155685248     1.277626098     2.790755400
 C       -3.394877426    13.355594492     1.307763354
 C       -3.293758652    13.430448255    -1.784959753
 C       -0.623968899    -0.915490602    -1.547310639
 C       -0.656731925    -0.906384828     1.539791418
 H        1.184233869     2.674655473    -0.646042976
 H        0.272538552     4.924307613    -0.637042331
 H       -3.552847325     3.415481580     0.634138496
 H       -2.682383083     1.144735087     0.638139445
 H       -3.337143217     5.717205340     0.314530667
 H       -0.570306105     6.762770977    -0.601182339
 H       -0.356746271     9.065378808    -0.920784477
 H       -1.230024305    11.337589461    -0.922307108
 H       -5.098699892     9.799488450     0.353155212
 H       -4.178384145     7.551326149     0.356259816
 H       -6.090941277    11.690080003    -1.217241178
 H       -6.350932115    13.612095668     1.230909754
 H       -8.502759595    14.133434770     1.920290314
 H      -10.959977832    13.954108534     1.721338572
 H      -10.473385240    11.231995770    -1.591733160
 H       -8.041426953    11.492024906    -1.451696297
 H      -13.961338058    12.184574685    -1.243677951
 H      -12.738490704    10.886298103    -1.377732204
 H      -12.435998856    12.504220562    -2.090851743
 H       -8.815590344    10.781807381     1.907764840
 H       -9.353001412     9.616297928     0.670739890
 H       -8.280162024     9.094165978     2.019590697
 H      -12.413612945     8.526180841     3.936692949
 H      -13.299529374     6.240304003     3.904272719
 H      -10.075558484     5.013840187     1.330667791
 H       -9.211956413     7.295353140     1.301659626
 H      -13.229667027     4.027964311     3.237845107
 H      -10.849719463     3.169542773     1.408222589
 H      -12.469249179     2.713492233    -0.672944197
 H      -12.619460584     1.875880260    -2.950324905
 H      -12.828903374    -2.169398361    -1.495896829
 H      -12.667580781    -1.378522386     0.799138546
 H      -12.904136961    -1.833537664    -3.801506390
 H      -12.757506614     1.089199009    -4.811351991
 H      -13.035516504    -2.621890983    -5.658722694
 H      -13.189171724    -3.461263899    -7.931421240
 H      -12.999392487     0.626422899    -9.412122976
 H      -12.836061266     1.421493895    -7.119539739
 H      -12.750244017    12.536845123     2.078748605
 H      -13.998080985    11.782049903     1.070794336
 H      -13.135297353     9.750272571     1.802210705
 H      -11.863784380    10.013359450     0.625045181
 H      -10.739837364    11.478066985     2.655922258
 H      -11.789406839    10.456869548     3.660150609
 H        2.263907076    -1.028740223     0.056005211
 H        2.260399104     0.556626926     0.869301860
 H        2.275377797     0.465582200    -0.913186876
 H      -13.834145990    -4.235591213   -11.713990033
 H      -14.695530813    -4.049970225   -10.165686923
 H      -12.980099789    -4.543189485   -10.181329709
 H      -14.096353944     0.032763068   -11.486767132
 C      -14.662146569    -1.406961045   -13.007631505
 C      -15.876688629    -1.029856165   -10.847605638
 H      -11.659958726    -2.344188352   -12.486779386
 C      -11.088368741    -0.436377853   -11.620661842
 C      -10.415588187    -2.677517530   -10.736848653
 H      -11.710001009    -0.786314979     2.969718238
 C       -9.856919556     0.137501626     2.317116352
 C      -11.080041594     0.687624677     4.434944009
 H      -14.045907994     1.765440006     3.802533202
 C      -15.211665350     2.062526309     1.990810548
 C      -14.667758383    -0.157401921     3.007870060
 H       -3.941245349    14.343000218     1.311237815
 C       -3.792635762    12.582138683     2.578459227
 C       -1.884470746    13.645957475     1.358233950
 H       -2.173844267    13.491050163    -1.658415622
 C       -3.583085678    12.713620339    -3.115705967
 C       -3.843350122    14.865823710    -1.857293254
 H       -0.142520475    -1.935389106    -1.514832979
 C       -2.150748855    -1.108872377    -1.571038368
 C       -0.193762237    -0.226226375    -2.855278352
 H       -1.781316026    -0.910356046     1.440391867
 C       -0.188737572    -2.369397255     1.636877331
 C       -0.302185078    -0.178250017     2.848949700
 H      -13.726351007    -1.353765824   -13.578868733
 H      -15.361237552    -0.714241059   -13.498445702
 H      -15.081006712    -2.412690037   -13.144540194
 H      -15.844737209    -0.709440468    -9.796294751
 H      -16.365325854    -2.012664904   -10.878879664
 H      -16.553103578    -0.331595963   -11.360770542
 H      -11.797428256     0.173495837   -12.194504255
 H      -10.135076401    -0.392966633   -12.167493660
 H      -10.911603803     0.065548365   -10.658882762
 H      -10.617930368    -3.752615931   -10.648410659
 H      -10.211210532    -2.293206957    -9.727042645
 H       -9.473549564    -2.587527684   -11.296579192
 H       -9.891126111    -0.214114722     1.276341827
 H       -9.236212037    -0.585711823     2.864821513
 H       -9.305891940     1.087951726     2.328872152
 H      -12.024192405     0.705537420     4.994372305
 H      -10.618670877     1.681345002     4.529699175
 H      -10.419296682    -0.010269782     4.968587609
 H      -14.943143695     3.114256048     1.821289462
 H      -16.167381556     2.070741879     2.533169772
 H      -15.419236517     1.615422436     1.007849524
 H      -14.015758553    -0.760170797     3.652675274
 H      -14.813275798    -0.706713283     2.067133906
 H      -15.649992163    -0.134479949     3.502045647
 H       -4.867770793    12.366783536     2.645289107
 H       -3.538514880    13.169155586     3.472317804
 H       -3.259850051    11.625102515     2.678314207
 H       -1.534244591    14.280331220     0.534029978
 H       -1.272833483    12.732553867     1.364141195
 H       -1.636373099    14.184268206     2.284834380
 H       -3.186684093    11.689063596    -3.154489046
 H       -3.109765837    13.256433427    -3.946497191
 H       -4.654866560    12.664361884    -3.351649365
 H       -3.598586091    15.471143541    -0.974920346
 H       -4.933759425    14.901069527    -1.993058941
 H       -3.409843613    15.391657985    -2.720243156
 H       -2.531692681    -1.677963481    -0.713624135
 H       -2.443631368    -1.674406065    -2.467771544
 H       -2.701173297    -0.158395173    -1.616758302
 H        0.893950141    -0.120298826    -2.955808209
 H       -0.638715040     0.771748686    -2.978116869
 H       -0.525582235    -0.818877533    -3.719896848
 H       -0.468536759    -2.974325115     0.764738419
 H       -0.652599066    -2.854396229     2.508174322
 H        0.896409243    -2.463851130     1.775426546
 H       -0.655486900     0.862559041     2.876061648
 H        0.776268647    -0.166546286     3.055184667
 H       -0.774801479    -0.685089146     3.702338235

