187   

Si        0.000000000     0.000000000     0.000000000
 C        1.865290386     0.000000000     0.000000000
 C       -0.671862246     1.714056164     0.000000000
 C        0.125168753     2.798187972    -0.381388282
 C       -0.390980485     4.093885572    -0.378806570
 C       -1.714606733     4.335162154    -0.001425968
 C       -2.513344954     3.247258585     0.375519710
 C       -2.000876423     1.952871621     0.374690656
 C       -2.296751833     5.673076874     0.016339782
 C       -1.641100952     6.796844061    -0.320185604
 C       -2.221859355     8.135356853    -0.302917591
 C       -3.546011890     8.377388730     0.074533727
 C       -4.060341470     9.673115266     0.076553243
 C       -3.256219966    10.756998739    -0.292670104
 C       -1.929639892    10.518389708    -0.671757025
 C       -1.421698774     9.221645649    -0.680098104
Si       -3.929860959    12.469273777    -0.291814690
 C       -2.554767443    13.671679589    -0.268658174
 C       -2.409029512    14.719125557    -1.090785502
 C       -1.286234774    15.656217020    -1.031814323
 C       -1.238112707    16.718869761    -1.945718246
 C       -0.197177770    17.632207537    -1.930990761
 C        0.874819591    17.479479630    -1.022742759
 C        0.829286048    16.409382456    -0.106996167
 C       -0.246792682    15.532466494    -0.105471662
 N        1.919507193    18.410227030    -1.019493644
 C        2.321848743    19.011288410    -2.300541632
 C        3.015725518    18.203346006    -0.065194199
 C        2.592733520    18.022377187    -3.449845263
 C        3.932814801    17.272119882    -3.352757354
 N        5.156580605    18.092083144    -3.462631083
 C        5.625557818    18.631422553    -2.238095813
 C        6.010021843    17.714338572    -1.238241996
 C        6.477457118    18.171554357    -0.017969957
 C        6.614900176    19.546100754     0.232718288
 C        6.262529384    20.448858445    -0.772453753
 C        5.783902449    20.004437473    -2.000989913
 C        5.156467376    19.004749046    -4.615412466
 C        7.114254308    19.970312357     1.541916051
 C        7.290782994    21.247292441     1.906479250
Si        7.917194548    21.747633448     3.551567056
 C        7.437139312    20.521817332     4.836501828
 C        6.184281488    19.898609050     4.753304065
 C        5.794712022    18.967299538     5.711387866
 C        6.639678999    18.643339605     6.781492127
 C        7.884829867    19.272127916     6.865671396
 C        8.279975304    20.203239730     5.905169616
 C        6.185742168    17.660814367     7.759991893
 C        6.895741984    17.258296407     8.827588137
 C        6.439947943    16.275453831     9.805131012
 C        5.194539727    15.648085115     9.718858401
 C        4.798660479    14.713838594    10.675882073
 C        5.639679601    14.390978762    11.745456928
 C        6.889472483    15.019100017    11.834391797
 C        7.284047152    15.946873722    10.874507587
Si        5.131086830    13.159933153    13.016378246
 C        3.306954492    12.783799052    12.915775376
 C        6.104758702    11.545107685    12.756971123
 C        5.564704393    13.858380154    14.733334900
 C        9.808647839    21.922622877     3.466935508
 C        7.163963878    23.435841433     3.997172843
 C       -5.029608196    12.709192019    -1.824506220
 C       -4.990016826    12.727560232     1.267404118
 C       -0.622625521    -0.914942893    -1.548402881
 C       -0.654794373    -0.909432971     1.538975043
 H        1.167819920     2.672461296    -0.686119633
 H        0.251373936     4.920628062    -0.676755989
 H       -3.547265265     3.412901836     0.672287321
 H       -2.671843229     1.144313680     0.677794336
 H       -3.343063477     5.712642939     0.332728435
 H       -0.594638930     6.756706942    -0.636862400
 H       -4.188918171     7.550736576     0.370485647
 H       -5.103288168     9.800679595     0.379256544
 H       -1.258015105    11.329061332    -0.972948842
 H       -0.389395515     9.053949311    -0.981236226
 H       -1.816743271    13.468125210     0.525486685
 H       -3.128562459    14.955932737    -1.885244272
 H       -2.041755650    16.840826955    -2.672522691
 H       -0.211193578    18.470608218    -2.620455864
 H        1.630760598    16.257211659     0.608474534
 H       -0.265198490    14.721677424     0.625047431
 H        3.735280789    19.041493872    -0.123704828
 H        3.574235219    17.267170148    -0.230141242
 H        2.609879115    18.205062871     0.963294720
 H        4.924558229    18.427094218    -5.527419182
 H        6.171778598    19.421447052    -4.744615415
 H        4.441196963    19.838314994    -4.539019015
 H        5.946787169    16.646152915    -1.437517962
 H        6.760987206    17.451530833     0.751297727
 H        6.365044446    21.521192344    -0.601677252
 H        5.522995460    20.731828025    -2.763472554
 H        7.327753988    19.126625910     2.214867629
 H        7.081051649    22.076845252     1.215548309
 H        5.481167913    20.115166471     3.941554194
 H        4.820541187    18.489059853     5.627541882
 H        8.559734787    19.039065765     7.687137397
 H        9.264883291    20.662601822     6.025157062
 H        5.189469735    17.251372222     7.568319240
 H        7.891697585    17.667626686     9.020450857
 H        4.519288869    15.884680111     8.898598149
 H        3.813048124    14.255843870    10.554568431
 H        7.588413290    14.806453834    12.648316083
 H        8.259110445    16.422822981    10.959520094
 H        1.506661036    19.712193400    -2.604864029
 H        3.217892144    19.651262156    -2.130138991
 H        1.777313725    17.269206227    -3.493023974
 H        2.533353343    18.566224265    -4.411252335
 H        3.963808505    16.692792253    -2.402806217
 H        3.986501098    16.518203505    -4.175162690
 H        2.263499509    -1.028947360     0.054446997
 H        2.260131059     0.555382307     0.870284752
 H        2.275737776     0.467226132    -0.912170011
 H        3.002301579    12.075552198    13.706957625
 H        3.034291316    12.334333540    11.944859266
 H        2.705399921    13.702154343    13.043393777
 H        5.708003503    10.822881582    13.527869948
 C        5.870570829    10.932309170    11.364051695
 C        7.620109194    11.695764186    12.980709895
 H        6.683361333    14.009976821    14.732312586
 C        4.904911268    15.223885538    14.997620493
 C        5.220305541    12.902643267    15.889434152
 H       10.138053518    22.252607016     4.494618909
 C       10.505277053    20.588343118     3.144929565
 C       10.275572594    22.984926172     2.455725693
 H        7.493808558    24.148725353     3.187317308
 C        5.625060236    23.403874495     4.007960843
 C        7.662583229    23.980669187     5.346870360
 H       -5.324879714    13.798463321    -1.825666333
 C       -4.279974871    12.412793121    -3.136465107
 C       -6.318209890    11.868062868    -1.792183373
 H       -5.835501075    11.983949687     1.195256461
 C       -4.212190589    12.437392831     2.563479713
 C       -5.601026187    14.137123222     1.352833348
 H       -0.142155416    -1.935230724    -1.515497865
 C       -2.149664315    -1.106853372    -1.573074670
 C       -0.190770424    -0.225900052    -2.855843065
 H       -1.779380199    -0.914663319     1.440672663
 C       -0.184981313    -2.372067677     1.633703239
 C       -0.299924610    -0.182869576     2.848947510
 H        4.815112990    10.716687249    11.153595893
 H        6.402014969     9.973423488    11.280153657
 H        6.249539157    11.566016720    10.549324935
 H        7.879593179    12.050076593    13.986311421
 H        8.093981218    12.368801721    12.252280299
 H        8.115280237    10.720792653    12.862580161
 H        5.150172874    15.978861784    14.236901416
 H        5.252704874    15.631388319    15.957605936
 H        3.810413587    15.166070822    15.064896701
 H        5.712470385    11.924957612    15.807135675
 H        4.141351059    12.726363727    15.992391323
 H        5.553087962    13.334383827    16.844673000
 H       10.264680271    19.785216681     3.855176612
 H       11.596665346    20.713807856     3.180454978
 H       10.270562846    20.216872930     2.136735045
 H        9.883954339    23.988524571     2.664897282
 H       10.015164123    22.731896227     1.418532499
 H       11.371516557    23.072616945     2.483161583
 H        5.187749416    23.077700736     3.054614316
 H        5.228553708    24.411074812     4.200264770
 H        5.216851383    22.758412165     4.799213623
 H        8.750340295    24.121254239     5.385654703
 H        7.376962119    23.344848671     6.197317054
 H        7.218630484    24.967856398     5.541361101
 H       -3.362185688    13.003407747    -3.261825352
 H       -4.919529845    12.648203283    -3.998501069
 H       -4.003781347    11.353252316    -3.238156353
 H       -6.963753920    12.092504424    -0.933619667
 H       -6.123675337    10.786331828    -1.794415800
 H       -6.921186459    12.070704934    -2.689273425
 H       -3.779873223    11.427338605     2.595004365
 H       -4.884242589    12.510294589     3.430291641
 H       -3.398331123    13.153180811     2.743597553
 H       -6.243489598    14.385860153     0.498483394
 H       -4.841674277    14.927857564     1.439044417
 H       -6.233827252    14.219843496     2.247913595
 H       -2.530733724    -1.679434222    -0.718064420
 H       -2.443038356    -1.667982644    -2.472285799
 H       -2.699077598    -0.155594904    -1.614089999
 H        0.897215666    -0.121641207    -2.955756041
 H       -0.633975945     0.772925291    -2.978430965
 H       -0.522960729    -0.817555624    -3.720937363
 H       -0.464179370    -2.976028072     0.760735399
 H       -0.647871652    -2.859027616     2.504385969
 H        0.900376451    -2.465271888     1.771764640
 H       -0.653680907     0.857734301     2.877705429
 H        0.778711713    -0.170712204     3.054443038
 H       -0.771549668    -0.691239062     3.701923164

