187   

Si        0.000000000     0.000000000     0.000000000
 C        1.864958220     0.000000000     0.000000000
 C       -0.677230858     1.710765260     0.000000000
 C        0.108430154     2.801196448    -0.386264012
 C       -0.418692985     4.092836140    -0.381247684
 C       -1.745222239     4.318867019    -0.006861193
 C       -2.533164102     3.224019798     0.372814622
 C       -2.007968962     1.935958853     0.377975899
 C       -2.345192224     5.646711172     0.015868885
 C       -1.717552015     6.789061122    -0.310702222
 C       -2.350034030     8.103899538    -0.276577979
 C       -1.596548848     9.227707563    -0.639013340
 C       -2.163091568    10.499575137    -0.619703196
 C       -3.496564925    10.673790765    -0.229242927
 C       -4.249977913     9.554753125     0.139563707
 C       -3.678861126     8.283689312     0.117970103
Si       -4.255592328    12.347433828    -0.199658694
 C       -6.076986658    12.203808538    -0.209677864
 C       -6.919949889    12.819997496     0.629234605
 C       -8.375657326    12.673515615     0.582065027
 C       -9.159935432    13.368936607     1.513487482
 C      -10.541207346    13.264073921     1.510902418
 C      -11.191224757    12.414956421     0.588526628
 C      -10.404148123    11.712883432    -0.345404014
 C       -9.023300219    11.859097185    -0.350669883
 N      -12.588018566    12.315668416     0.593690563
 C      -13.301304493    12.497401025     1.866183902
 C      -13.208644472    11.358222362    -0.331494744
 C      -12.887050325    11.533801172     2.992051841
 C      -13.389247253    10.105296959     2.719353411
 N      -12.992385342     9.094540416     3.708549945
 C      -11.674222979     8.578576737     3.639483318
 C      -10.682155255     9.086644305     2.784952762
 C       -9.411379697     8.524287892     2.776511792
 C       -9.111122905     7.405293515     3.563187472
 C      -10.113037820     6.880640289     4.387615708
 C      -11.375775514     7.450789186     4.429241867
 C      -13.461105877     9.404579941     5.072315739
 C       -7.758817227     6.844818720     3.523844778
 C       -7.368896571     5.778412763     4.236132239
Si       -5.682370645     5.073170446     4.192062258
 C       -4.422167368     6.363649013     3.842680281
 C       -4.643511258     7.681392023     4.265113722
 C       -3.699242414     8.670948750     4.008606503
 C       -2.491155563     8.357135155     3.372990062
 C       -2.264850776     7.038141085     2.972373175
 C       -3.221586980     6.049935866     3.199441290
 C       -1.532271551     9.426275531     3.125019427
 C       -0.354071236     9.266499701     2.499546506
 C        0.597784742    10.344005540     2.256920613
 C        0.358373494    11.659153325     2.663271016
 C        1.291950929    12.663917330     2.413972330
 C        2.481990169    12.374786595     1.738768250
 C        2.719807897    11.058904915     1.320478199
 C        1.786476246    10.057268452     1.573364604
Si        3.714423010    13.700498846     1.409506145
 C        3.506088894    15.133455496     2.585229940
 C        5.466879623    12.975449488     1.559460778
 C        3.456709253    14.315232509    -0.374356116
 C       -5.287508989     4.254534273     5.859271047
 C       -5.627149434     3.753269881     2.819675646
 C       -3.637933279    13.275535864     1.340500721
 C       -3.709837050    13.308214873    -1.748968099
 C       -0.625778374    -0.920606290    -1.543420989
 C       -0.656051201    -0.901563455     1.544141855
 H        1.150690523     2.683213690    -0.693934098
 H        0.214878060     4.926285545    -0.678004485
 H       -3.570962645     3.380182204     0.667071035
 H       -2.669337524     1.121460885     0.686379053
 H       -3.394659786     5.665734308     0.331821256
 H       -0.672374091     6.785915308    -0.629335244
 H       -0.556469491     9.110742014    -0.936469553
 H       -1.526922311    11.340347642    -0.909726710
 H       -5.292935576     9.634991634     0.463305124
 H       -4.280483371     7.428578609     0.424051127
 H       -6.454165168    11.545832897    -1.010506848
 H       -6.578403523    13.486177470     1.431805690
 H       -8.678056106    14.012781050     2.250118584
 H      -11.119554690    13.840521557     2.226029986
 H      -10.861472545    11.050335276    -1.072460636
 H       -8.438392588    11.310257697    -1.091152976
 H      -14.305677626    11.377283431    -0.225905803
 H      -12.863964999    10.319141802    -0.190019204
 H      -12.981406771    11.664915593    -1.370424975
 H      -14.508775867     9.745737807     5.034738083
 H      -12.854758333    10.173950550     5.576767239
 H      -13.441004640     8.489453504     5.689027415
 H      -10.881393746     9.939474455     2.139823306
 H       -8.643546057     8.960292643     2.133945231
 H       -9.905912885     6.007088024     5.006593816
 H      -12.143564382     7.016791094     5.064265933
 H       -7.082629497     7.392352994     2.850626832
 H       -8.070298645     5.243573389     4.893662808
 H       -5.558429077     7.978658584     4.788063496
 H       -3.900465722     9.695806130     4.314305955
 H       -1.336012131     6.770167797     2.469591497
 H       -2.987727656     5.037996390     2.854867138
 H       -1.836691964    10.410269254     3.494820476
 H       -0.049045349     8.285402262     2.124382548
 H       -0.561318969    11.908258271     3.191518967
 H        1.053216138    13.671429461     2.764951936
 H        3.631521915    10.776557198     0.787784105
 H        1.987349013     9.040634790     1.241182407
 H      -13.135215348    13.550914549     2.198479399
 H      -14.395354113    12.416782800     1.676534191
 H      -11.785212559    11.538042496     3.114663240
 H      -13.288086907    11.900646309     3.954635258
 H      -14.503954202    10.098730807     2.678699647
 H      -13.045860825     9.755752252     1.718465507
 H        2.263325412    -1.028979625     0.053345229
 H        2.259593521     0.554726406     0.870742028
 H        2.275018475     0.468493371    -0.911713854
 H        4.279119454    15.903767209     2.414403711
 H        3.596809789    14.798961685     3.634844424
 H        2.521440769    15.619261466     2.471034750
 H        5.531386263    12.155670499     0.786074961
 C        6.579777191    13.994821258     1.256667209
 C        5.727396936    12.343098372     2.938666144
 H        4.175755292    15.172542050    -0.513813666
 C        3.772003960    13.247730871    -1.437533454
 C        2.029395978    14.842255013    -0.613921755
 H       -6.090333304     3.480452117     6.027929894
 C       -3.924319380     3.540324047     5.868642804
 C       -5.337836627     5.255723716     7.027367038
 H       -4.558016369     3.394206464     2.774698848
 C       -6.521415336     2.534435534     3.105652861
 C       -6.003630231     4.336649232     1.445640144
 H       -4.230447316    14.234157095     1.387704247
 C       -3.898943267    12.484568427     2.635372696
 C       -2.145841511    13.643868401     1.266817366
 H       -2.587077398    13.400160727    -1.678534238
 C       -4.043797877    12.562410671    -3.053000086
 C       -4.300017600    14.727686867    -1.815736005
 H       -0.153563860    -1.944440741    -1.502769233
 C       -2.154297654    -1.100950282    -1.570526956
 C       -0.185764273    -0.243274310    -2.854244380
 H       -1.777829982    -0.943319198     1.424870223
 C       -0.143818073    -2.346860179     1.674337857
 C       -0.349606888    -0.140586539     2.846939268
 H        6.501127217    14.439938465     0.256374252
 H        7.561610067    13.500910025     1.296708548
 H        6.619494748    14.814984591     1.985759241
 H        4.998569251    11.563679899     3.203634817
 H        5.734317917    13.079104642     3.753701302
 H        6.713974888    11.858350002     2.951401344
 H        4.808099203    12.888319139    -1.399338526
 H        3.631037794    13.666781104    -2.444433056
 H        3.109131278    12.372911011    -1.373853424
 H        1.753286265    15.669259172     0.052682403
 H        1.263446018    14.059441500    -0.511887802
 H        1.939259151    15.231040412    -1.638322312
 H       -3.845514445     2.741592924     5.119616364
 H       -3.755433261     3.064077081     6.844943203
 H       -3.079862493     4.228234337     5.714435034
 H       -6.305372717     5.766973770     7.122559807
 H       -4.559164748     6.029510819     6.959929307
 H       -5.169534253     4.733550156     7.979742748
 H       -6.264794358     2.014464937     4.037284891
 H       -6.414485287     1.792331860     2.301292673
 H       -7.589565782     2.787445181     3.148156733
 H       -5.369069962     5.180314867     1.140269656
 H       -7.047493329     4.681741605     1.401628082
 H       -5.905250215     3.568540803     0.665709922
 H       -4.962025711    12.261665221     2.802583909
 H       -3.561921427    13.061888279     3.506943011
 H       -3.357481967    11.526740594     2.663594713
 H       -1.908209576    14.325996939     0.440569602
 H       -1.488698722    12.765582259     1.172252879
 H       -1.837487623    14.159606038     2.187226417
 H       -3.617123210    11.550085009    -3.096206141
 H       -3.631079711    13.105827437    -3.914653273
 H       -5.123921600    12.475526191    -3.232447969
 H       -4.028487654    15.352525843    -0.955215235
 H       -5.396348521    14.732129055    -1.896715917
 H       -3.924370159    15.250453462    -2.706761879
 H       -2.541516395    -1.666821805    -0.713859013
 H       -2.449885652    -1.664078027    -2.467803657
 H       -2.696459030    -0.145761230    -1.617172462
 H        0.903282927    -0.148814885    -2.952556227
 H       -0.620309423     0.758403628    -2.983891559
 H       -0.521308386    -0.837476791    -3.716361622
 H       -0.383627694    -2.973355584     0.805551182
 H       -0.611447541    -2.833958935     2.542377371
 H        0.940496015    -2.403506882     1.838502735
 H       -0.738343814     0.888128942     2.850657593
 H        0.724214141    -0.088231290     3.070443718
 H       -0.817973896    -0.650687139     3.700668157

