187   

Si        0.000000000     0.000000000     0.000000000
 C        1.865192432     0.000000000     0.000000000
 C       -0.681945667     1.709708679     0.000000000
 C        0.114864597     2.804993140     0.348077187
 C       -0.413046731     4.096093547     0.344427780
 C       -1.747680473     4.321335455    -0.002246532
 C       -2.546000181     3.222218773    -0.346617962
 C       -2.022178897     1.932549733    -0.343942295
 C       -2.343871968     5.652880042    -0.020420371
 C       -1.693925410     6.788327666     0.286671065
 C       -2.294439872     8.118152252     0.267102313
 C       -1.502284429     9.221558238     0.610239879
 C       -2.033163472    10.509126616     0.605371770
 C       -3.366289015    10.725422637     0.236600970
 C       -4.158615013     9.625076442    -0.109637035
 C       -3.628917822     8.335961819    -0.087515382
Si       -4.092989193    12.413842792     0.221182109
 C       -5.373157259    12.617364218    -1.067260988
 C       -5.377152087    11.951846722    -2.230110342
 C       -6.397695111    12.108314459    -3.267302257
 C       -6.285470010    11.350141528    -4.442220657
 C       -7.222200457    11.457968620    -5.456493571
 C       -8.281535016    12.385197395    -5.354397704
 C       -8.389251551    13.153770276    -4.180986609
 C       -7.469218475    12.996973514    -3.151105271
 N       -9.222443630    12.475498891    -6.401125469
 C       -8.685188349    12.347497574    -7.772380847
 C      -10.237323952    13.535525618    -6.278371746
 C       -7.485166282    13.271740023    -8.053124624
 C       -7.481686484    13.886242212    -9.462691127
 N       -8.608444095    14.785191931    -9.793988051
 C       -9.065368196    15.639059396    -8.774906643
 C       -8.116693147    16.292567974    -7.956726812
 C       -8.532657802    17.139337510    -6.945022673
 C       -9.893885779    17.420912880    -6.750022617
 C      -10.827896385    16.805462202    -7.584602844
 C      -10.428679807    15.931444378    -8.589555240
 C       -9.627827023    14.163524883   -10.653047935
 C      -10.270210343    18.324122482    -5.663094599
 C      -11.528957026    18.676270984    -5.367914721
Si      -11.931833242    19.812758073    -3.992089641
 C      -10.662862325    19.635792969    -2.670600566
 C      -10.265009627    18.343192247    -2.303709832
 C       -9.308480441    18.152060465    -1.309806861
 C       -8.731069460    19.245185343    -0.655725511
 C       -9.131886298    20.535603672    -1.022260882
 C      -10.086982841    20.730484498    -2.018647805
 C       -7.726086575    19.085411607     0.390361884
 C       -7.267306198    17.898544651     0.821889959
 C       -6.264393352    17.717395150     1.864926014
 C       -5.664467440    18.784703409     2.537420189
 C       -4.709290383    18.555845644     3.528483678
 C       -4.341903669    17.251767924     3.873747833
 C       -4.951543077    16.180226430     3.208206223
 C       -5.905126564    16.410771047     2.221756297
Si       -3.085636391    16.914852763     5.176152552
 C       -2.145482218    18.455173381     5.642675654
 C       -3.955951907    16.220351586     6.720176649
 C       -1.898913594    15.577829668     4.518504521
 C      -11.988974799    21.597190397    -4.646309811
 C      -13.642541323    19.363292925    -3.295521052
 C       -4.905369949    12.691181271     1.920477912
 C       -2.756891365    13.745250733    -0.024830067
 C       -0.651603904    -0.907999550    -1.541517335
 C       -0.618171903    -0.920937100     1.546879168
 H        1.166056127     2.691699279     0.627011804
 H        0.228817373     4.931944980     0.616662389
 H       -3.588572359     3.375478923    -0.619124180
 H       -2.693420262     1.114712227    -0.620682411
 H       -3.398522713     5.677161081    -0.310835115
 H       -0.639781430     6.765722770     0.577363632
 H       -0.460707684     9.073647784     0.888215203
 H       -1.370370300    11.330259719     0.891997412
 H       -5.207976538     9.735158456    -0.404568301
 H       -4.267109731     7.495839416    -0.355662617
 H       -6.153714524    13.356048893    -0.829589025
 H       -4.603047361    11.217458745    -2.495556566
 H       -5.457320838    10.649151657    -4.554044825
 H       -7.135521103    10.824681008    -6.334393516
 H       -9.186536692    13.882052660    -4.063702844
 H       -7.582225242    13.596845788    -2.246669108
 H      -10.937012170    13.485184796    -7.128994222
 H       -9.812623735    14.555540418    -6.251735709
 H      -10.832369525    13.366846009    -5.363354137
 H       -9.135307132    13.614138735   -11.473768148
 H      -10.234995850    14.957246741   -11.127221069
 H      -10.302355962    13.471728436   -10.123816595
 H       -7.054384460    16.134720093    -8.126278839
 H       -7.786478379    17.610934255    -6.302331417
 H      -11.891336367    17.011731942    -7.455667817
 H      -11.186425160    15.472431103    -9.214951449
 H       -9.403353554    18.686749075    -5.089317314
 H      -12.384501500    18.314532878    -5.953859209
 H      -10.677823246    17.449090541    -2.784723020
 H       -9.011779816    17.137754307    -1.047196555
 H       -8.694325601    21.399465507    -0.525663871
 H      -10.362052869    21.760104040    -2.261644944
 H       -7.354617958    20.019413978     0.819869311
 H       -7.643469064    16.966917644     0.385973467
 H       -5.934912128    19.808667827     2.287640822
 H       -4.268679242    19.429901688     4.015401173
 H       -4.705293833    15.138917244     3.444276460
 H       -6.378923029    15.566783398     1.721285489
 H       -8.399883014    11.281784681    -7.925487058
 H       -9.510263878    12.540277368    -8.491273340
 H       -7.453417899    14.074533148    -7.286567145
 H       -6.539496297    12.714928320    -7.902163147
 H       -6.549336025    14.490735455    -9.591102143
 H       -7.425885561    13.076513082   -10.222783932
 H        2.262782419    -1.029711864    -0.043579689
 H        2.275794031     0.476746067     0.907195359
 H        2.260365846     0.545880204    -0.876051980
 H       -1.365456571    18.235245354     6.393387796
 H       -2.810144598    19.225844404     6.070998911
 H       -1.642828882    18.894954598     4.762071004
 H       -3.143758877    16.080854212     7.490918104
 C       -4.998520549    17.195791929     7.296387966
 C       -4.632368736    14.856659679     6.490097400
 H       -2.526735154    14.646003874     4.397601067
 C       -1.305722163    15.925955203     3.142221386
 C       -0.753016161    15.246224575     5.490411791
 H      -12.182660118    22.251851116    -3.747847750
 C      -10.655251043    22.032221271    -5.280475875
 C      -13.121099832    21.837640284    -5.661151261
 H      -14.368592211    19.496789952    -4.149061036
 C      -13.725668222    17.899551313    -2.826117077
 C      -14.083965273    20.282836729    -2.143494261
 H       -5.259696203    13.762078179     1.921047904
 C       -6.128421605    11.785600128     2.145920725
 C       -3.923444352    12.503820579     3.090035808
 H       -2.070163366    13.673212440     0.867590883
 C       -1.920715877    13.504790474    -1.294716127
 C       -3.327504635    15.173692188    -0.071129479
 H       -1.776345382    -0.913962504    -1.445319229
 C       -0.294924282    -0.179037874    -2.849654207
 C       -0.180428882    -2.370033304    -1.637709497
 H       -0.130859191    -1.937954572     1.512443063
 C       -0.191166904    -0.230711441     2.855297362
 C       -2.143782404    -1.123641346     1.571596492
 H       -4.579738685    18.173622336     7.566862556
 H       -5.432173672    16.782769779     8.218502677
 H       -5.841529716    17.372489501     6.612961743
 H       -3.935856016    14.073533402     6.164617137
 H       -5.454485956    14.905317492     5.762153879
 H       -5.078138605    14.496838649     7.429135300
 H       -2.071654217    16.108117460     2.373428470
 H       -0.693049370    15.090981582     2.772705445
 H       -0.648196104    16.804501966     3.167054347
 H       -1.100671978    14.919187330     6.478792352
 H       -0.062139858    16.086138784     5.641181725
 H       -0.147963801    14.419776828     5.089492519
 H       -9.795539194    21.941068877    -4.602703311
 H      -10.704399660    23.089723299    -5.575574545
 H      -10.413998443    21.468117541    -6.193532809
 H      -14.120447958    21.631489248    -5.257351955
 H      -13.002332290    21.249037813    -6.581448858
 H      -13.128813104    22.892649467    -5.971554190
 H      -13.467424125    17.174160995    -3.609426672
 H      -14.752495664    17.662922430    -2.512762578
 H      -13.085864843    17.694082959    -1.955867269
 H      -14.136636733    21.342027122    -2.426430858
 H      -13.433242094    20.205436427    -1.260595197
 H      -15.092688261    20.004968853    -1.805139543
 H       -6.904913285    11.899730991     1.377502735
 H       -6.605745593    12.027362068     3.106257169
 H       -5.867781146    10.718837761     2.193743881
 H       -3.043514951    13.159135751     3.031411136
 H       -3.558081371    11.470420247     3.177853555
 H       -4.422618606    12.731681847     4.043213043
 H       -1.432459007    12.521396858    -1.320713123
 H       -1.116096152    14.250420106    -1.363493964
 H       -2.510272813    13.603127462    -2.217808460
 H       -3.873379762    15.460005195     0.839178799
 H       -3.997084254    15.341933645    -0.926229254
 H       -2.511479691    15.902991317    -0.176411164
 H       -0.650110703     0.861115217    -2.877436689
 H       -0.764205234    -0.686547899    -3.704403765
 H        0.784056870    -0.165215524    -3.052973968
 H       -0.463427790    -2.976280318    -0.767522319
 H        0.905584352    -2.462323758    -1.770947953
 H       -0.638901982    -2.855062915    -2.511776999
 H        0.896064457    -0.119012486     2.955413730
 H       -0.519451805    -0.825964983     3.719447665
 H       -0.641188156     0.764886629     2.979192253
 H       -2.522495905    -1.689184435     0.710902440
 H       -2.699303849    -0.176513716     1.624138164
 H       -2.431903311    -1.696781356     2.464927544

