187   

Si        0.000000000     0.000000000     0.000000000
 C        1.865983318     0.000000000     0.000000000
 C       -0.682035011     1.709303208     0.000000000
 C        0.139167172     2.805101695    -0.283491294
 C       -0.381811419     4.097599180    -0.282307563
 C       -1.730291696     4.329992622     0.007101139
 C       -2.549992298     3.231700001     0.289305267
 C       -2.034937519     1.937596671     0.282112461
 C       -2.301333674     5.675195731     0.014975033
 C       -1.575970406     6.773452546    -0.253219427
 C       -2.046746644     8.151584292    -0.271482651
 C       -1.102609622     9.142004652    -0.580178968
 C       -1.465464330    10.482139999    -0.619819920
 C       -2.780994055    10.870360720    -0.325655560
 C       -3.723818667     9.886868424    -0.015588067
 C       -3.360901666     8.537517572     0.000972041
Si       -3.165819875    12.662485094    -0.404021113
 C       -4.640955635    13.236621399     0.497626421
 C       -5.179878759    12.724928483     1.611218309
 C       -6.380197262    13.292942862     2.235280486
 C       -6.892359685    12.706989378     3.401912635
 C       -8.025906891    13.221729334     4.014821507
 C       -8.662416914    14.352167405     3.477275499
 C       -8.150088597    14.951109947     2.321383632
 C       -7.016195095    14.423092441     1.714699203
 N       -9.828413078    14.827492705     4.164473085
 C      -11.030342643    14.037469216     3.820440406
 C      -10.052709704    16.280301850     4.045285359
 C      -11.453392169    14.101796756     2.338369658
 C      -11.798884375    12.729066560     1.729114346
 N      -10.700721704    12.018845324     1.058890695
 C       -9.872816956    11.141796218     1.769723408
 C      -10.084810759    10.840028121     3.129006641
 C       -9.240995953     9.965918617     3.795536564
 C       -8.235990268     9.267111213     3.115140220
 C       -8.047823044     9.534265795     1.754765608
 C       -8.833087149    10.465684667     1.092410926
 C      -10.065786602    12.780267206    -0.029696607
 C       -7.381743407     8.361111624     3.880720189
 C       -6.383213090     7.628434920     3.369980745
Si       -5.337183112     6.505131100     4.367317074
 C       -5.262923452     4.855542826     3.553069191
 C       -5.965496478     4.612810812     2.366462322
 C       -5.906563438     3.363642577     1.753900073
 C       -5.175704894     2.317137358     2.330635616
 C       -4.482926786     2.558497663     3.520661000
 C       -4.518627826     3.815665459     4.121592967
 C       -5.144140180     1.026844105     1.651032888
 C       -4.462421082    -0.048153473     2.081914071
 C       -4.433093389    -1.336866346     1.399799392
 C       -5.125628952    -1.577326811     0.210650425
 C       -5.068591149    -2.826862228    -0.407216155
 C       -4.311815670    -3.861647323     0.150449572
 C       -3.623949393    -3.626039173     1.348861362
 C       -3.695056314    -2.383097070     1.970081299
Si       -4.219648281    -5.518772166    -0.644057023
 C       -5.017156281    -5.517747486    -2.329799879
 C       -2.374661506    -5.969565057    -0.785082211
 C       -5.090617701    -6.814488403     0.442149079
 C       -3.576593697     7.223698858     4.476941866
 C       -6.040596090     6.347038078     6.128120245
 C       -1.680843019    13.649240933     0.269917804
 C       -3.433822869    13.121347117    -2.234248001
 C       -0.620556001    -0.942740714    -1.532233202
 C       -0.660017533    -0.888675311     1.545265481
 H        1.201811165     2.690822616    -0.512106522
 H        0.281438165     4.930625481    -0.508616558
 H       -3.603557214     3.387319062     0.524199918
 H       -2.727137786     1.118945178     0.508813813
 H       -3.364240594     5.736672444     0.258393781
 H       -0.509641456     6.671050102    -0.490949701
 H       -0.073641697     8.860521148    -0.796648825
 H       -0.684572366    11.203702141    -0.878770160
 H       -4.762236678    10.139257925     0.220869848
 H       -4.112523349     7.783817420     0.231395229
 H       -5.085440206    14.132351024     0.025793946
 H       -4.781492483    11.843931291     2.127945857
 H       -6.407179525    11.825889566     3.825635054
 H       -8.427613099    12.758876781     4.915286718
 H       -8.625339013    15.830201316     1.896918276
 H       -6.628259450    14.906036696     0.817208472
 H      -10.799976564    16.576062485     4.802423516
 H      -10.407239834    16.614057622     3.059453437
 H       -9.116907435    16.815029681     4.283728197
 H      -10.752114842    13.545208589    -0.425242010
 H       -9.830844979    12.093389058    -0.863627754
 H       -9.132629767    13.279512781     0.290467637
 H      -10.894954447    11.308786831     3.680525533
 H       -9.390428160     9.797557013     4.862832183
 H       -7.263475783     9.013547162     1.203406779
 H       -8.645229469    10.665112812     0.041823259
 H       -7.650107138     8.332753689     4.946608945
 H       -6.121318500     7.678478534     2.302557910
 H       -6.574300067     5.383698713     1.883736684
 H       -6.447983910     3.198064475     0.824464584
 H       -3.900649970     1.764629277     3.984887327
 H       -3.940007212     3.951783677     5.039750989
 H       -5.735383663     0.979338432     0.731458858
 H       -3.872182543    -0.002217005     3.002230334
 H       -5.717173186    -0.786652572    -0.247681186
 H       -5.632332699    -2.956666356    -1.334979712
 H       -3.018095377    -4.398179138     1.831583879
 H       -3.165087175    -2.223090637     2.908286418
 H      -10.820478809    12.986651128     4.128483616
 H      -11.860081599    14.386831458     4.472996611
 H      -12.325686806    14.772717247     2.234137079
 H      -10.651967860    14.577133348     1.739630999
 H      -12.257989369    12.062690763     2.492450859
 H      -12.592139172    12.869030588     0.951928565
 H        2.263151014    -1.028902654     0.057059474
 H        2.261860480     0.557108120     0.868018993
 H        2.275743756     0.464431711    -0.913612339
 H       -4.925742271    -6.506636928    -2.813671382
 H       -4.538521159    -4.777873333    -2.996764228
 H       -6.092750806    -5.274747513    -2.272645967
 H       -1.979718436    -5.981596746     0.272527355
 C       -2.127373256    -7.359615521    -1.396581057
 C       -1.569630130    -4.922660953    -1.576051001
 H       -5.049252908    -7.777516539    -0.145108447
 C       -4.404824598    -7.057314641     1.798494783
 C       -6.570769524    -6.472292614     0.693278544
 H       -3.075786161     6.671558206     5.324022836
 C       -2.741088904     6.988564392     3.208690669
 C       -3.567907430     8.727081602     4.806711560
 H       -6.201232320     7.405478212     6.487161612
 C       -7.399026032     5.621279855     6.146455403
 C       -5.103087934     5.653490514     7.132249590
 H       -0.812823607    13.419709261    -0.412376114
 C       -1.906184271    15.171346886     0.252457708
 C       -1.298602078    13.214507913     1.695801708
 H       -3.602256925    14.236234618    -2.255229379
 C       -2.222847442    12.806688627    -3.128482956
 C       -4.681386096    12.436460545    -2.821165256
 H       -0.168011884    -1.973779313    -1.457947330
 C       -2.149836678    -1.093952986    -1.579273474
 C       -0.148288968    -0.308216981    -2.853341728
 H       -1.785673251    -0.872564472     1.433616361
 C       -0.217151127    -2.358108393     1.651480822
 C       -0.308849914    -0.156171987     2.852225728
 H       -2.614080785    -8.172356640    -0.842303444
 H       -1.051200820    -7.586345812    -1.390978848
 H       -2.449510131    -7.430612650    -2.443923536
 H       -1.661975464    -3.903855575    -1.169388537
 H       -1.848189426    -4.879229434    -2.637167623
 H       -0.498924481    -5.169680664    -1.547641496
 H       -3.355631365    -7.365864088     1.708827053
 H       -4.916897794    -7.868479615     2.336752326
 H       -4.445444685    -6.180354280     2.459525014
 H       -7.156851837    -6.364806119    -0.228583002
 H       -6.702957227    -5.551945594     1.280141604
 H       -7.050826288    -7.276068265     1.269882896
 H       -2.684311287     5.933461848     2.905320180
 H       -1.702851139     7.310867399     3.373908851
 H       -3.101236822     7.563858419     2.343931186
 H       -4.076645274     8.971971579     5.747183878
 H       -4.019366384     9.339541154     4.012033607
 H       -2.532388510     9.080713551     4.914932395
 H       -8.152201628     6.077131520     5.489035526
 H       -7.823316252     5.637544153     7.160016783
 H       -7.318806384     4.561987508     5.862863089
 H       -4.126325643     6.143893733     7.230349866
 H       -4.928441530     4.595438844     6.895058254
 H       -5.553472193     5.669004006     8.135689427
 H       -2.117424778    15.569779087    -0.747762402
 H       -1.001409754    15.688412795     0.603642124
 H       -2.719121330    15.490192101     0.920244320
 H       -1.057913742    12.144786262     1.775158325
 H       -2.083598207    13.432885934     2.434421839
 H       -0.402640438    13.756850796     2.028881127
 H       -1.307193336    13.328164186    -2.822140281
 H       -2.425363387    13.124251587    -4.161674459
 H       -1.996267172    11.731725968    -3.179002391
 H       -5.603725295    12.657799086    -2.266576853
 H       -4.581183042    11.342606195    -2.874751552
 H       -4.849865875    12.779053374    -3.851733337
 H       -2.567692110    -1.610686422    -0.702086643
 H       -2.444506906    -1.693894554    -2.451907404
 H       -2.672926010    -0.132386028    -1.676331861
 H        0.942988905    -0.231974140    -2.936132358
 H       -0.565742104     0.695713364    -3.016028774
 H       -0.479851599    -0.920604210    -3.703896041
 H       -0.539757277    -2.967604271     0.795886519
 H       -0.664958601    -2.822281608     2.541855657
 H        0.868802547    -2.473875664     1.756460089
 H       -0.652736975     0.888497345     2.867218514
 H        0.767904506    -0.151897017     3.064828212
 H       -0.791215573    -0.652954978     3.705304095

