187   

Si        0.000000000     0.000000000     0.000000000
 C        1.865167977     0.000000000     0.000000000
 C       -0.677894840     1.711541276     0.000000000
 C        0.088758963     2.786990159     0.460681307
 C       -0.430797569     4.081377120     0.458021714
 C       -1.728406133     4.329404813     0.002630972
 C       -2.497429829     3.249969577    -0.452359971
 C       -1.981426819     1.956990545    -0.451534040
 C       -2.314754959     5.665243968    -0.019156351
 C       -1.690424274     6.784226692     0.386128025
 C       -2.282102796     8.117954099     0.361999606
 C       -1.520198288     9.202917594     0.814403844
 C       -2.044273441    10.493604144     0.809472256
 C       -3.339627117    10.731573003     0.335772074
 C       -4.101884348     9.649040909    -0.119273780
 C       -3.579433187     8.357139629    -0.100670262
Si       -4.065545465    12.422110709     0.313738940
 C       -5.168846517    12.661945455    -1.123986292
 C       -5.011816975    12.040457296    -2.300779280
 C       -5.890537451    12.227399061    -3.455432189
 C       -5.619204924    11.516895426    -4.634195791
 C       -6.418444077    11.656477137    -5.756027791
 C       -7.505687625    12.559426992    -5.751236302
 C       -7.778748341    13.273501339    -4.567870707
 C       -6.992042041    13.086996518    -3.438782341
 N       -8.302732926    12.687049138    -6.894842110
 C       -7.652301515    12.570866978    -8.209511704
 C       -9.424503186    13.632424264    -6.844896099
 C       -6.406938979    13.453056826    -8.417906845
 C       -6.709381489    14.939898994    -8.674888851
 N       -7.385726435    15.263839046    -9.947749783
 C       -8.800196597    15.161858195    -9.912335262
 C       -9.484846300    16.029209949    -9.036789524
 C      -10.866139338    15.983474579    -8.951777683
 C      -11.609577005    15.106988583    -9.757693070
 C      -10.928067403    14.272143731   -10.645590435
 C       -9.540149265    14.301650129   -10.736416124
 C       -6.726301874    14.687307500   -11.129154649
 C      -13.067667717    15.101621078    -9.625054105
 C      -13.887015648    14.314456086   -10.334484715
Si      -15.707770885    14.323191328   -10.153420883
 C      -16.201713949    14.774301897    -8.439845331
 C      -15.402604265    14.366451828    -7.364746668
 C      -15.753831752    14.694711908    -6.056780670
 C      -16.916189881    15.424689712    -5.791292428
 C      -17.718661441    15.823637618    -6.867849955
 C      -17.368319714    15.501158379    -8.177047712
 C      -17.321977956    15.790085475    -4.438133075
 C      -16.641977151    15.469414768    -3.324236086
 C      -17.044759060    15.833076540    -1.969820449
 C      -18.202778802    16.566169887    -1.698558742
 C      -18.549741784    16.891895103    -0.387363713
 C      -17.740240505    16.496132355     0.682006297
 C      -16.577785491    15.760985901     0.412349891
 C      -16.237415811    15.432063543    -0.896670527
Si      -18.184306550    16.918128005     2.418100504
 C      -19.530658825    18.207440890     2.487364616
 C      -18.788904831    15.352122107     3.315402584
 C      -16.620033755    17.552868241     3.297951763
 C      -16.449919836    15.546728628   -11.405242816
 C      -16.359701680    12.578912656   -10.539819138
 C       -5.085308913    12.668578726     1.900867732
 C       -2.688819176    13.734118809     0.263236036
 C       -0.647591050    -0.918420398    -1.537113057
 C       -0.626292305    -0.911689596     1.548965725
 H        1.110064943     2.655137181     0.828478695
 H        0.187689326     4.901704258     0.817623156
 H       -3.511009278     3.421008526    -0.810286785
 H       -2.629289329     1.155243911    -0.816648841
 H       -3.339213971     5.707869172    -0.401308154
 H       -0.666633521     6.743560111     0.768759460
 H       -0.507974435     9.038576383     1.178269453
 H       -1.405861896    11.298943710     1.182335722
 H       -5.121308720     9.776488946    -0.500182922
 H       -4.193683994     7.531634046    -0.455771590
 H       -5.983780144    13.382977816    -0.962688874
 H       -4.199812714    11.322956193    -2.488553270
 H       -4.771451154    10.830821453    -4.666036636
 H       -6.208777583    11.062292034    -6.640250071
 H       -8.605369099    13.974443769    -4.521546366
 H       -7.234458036    13.639621825    -2.529915590
 H      -10.008442394    13.578004247    -7.782923105
 H       -9.114283662    14.680243686    -6.700053551
 H      -10.109914847    13.343064333    -6.027128483
 H       -5.657854832    14.965564502   -11.111860957
 H       -7.163809599    15.134924678   -12.039684976
 H       -6.800113137    13.591450277   -11.205852011
 H       -8.920164706    16.740691299    -8.436977338
 H      -11.383417512    16.653064877    -8.262887977
 H      -11.484925043    13.585590989   -11.284349210
 H       -9.040176606    13.642698122   -11.439669377
 H      -13.434298961    15.813093846    -8.870561443
 H      -13.500159081    13.617698259   -11.092783173
 H      -14.484203536    13.787034368    -7.510600901
 H      -15.112544946    14.371871983    -5.238479453
 H      -18.628354998    16.391661270    -6.682721263
 H      -18.034023022    15.838754380    -8.975878745
 H      -18.251048318    16.364204861    -4.377624698
 H      -15.713618370    14.893666701    -3.385638665
 H      -18.847821469    16.889750652    -2.513336130
 H      -19.468381598    17.465959398    -0.237724990
 H      -15.906782157    15.424984642     1.208104707
 H      -15.332264153    14.858096136    -1.086054487
 H       -7.369034601    11.498495184    -8.343307578
 H       -8.406268734    12.780457645    -9.002350683
 H       -5.747735671    13.382005395    -7.526402896
 H       -5.809218187    13.038628583    -9.251068241
 H       -7.308301547    15.348275636    -7.830305517
 H       -5.749583595    15.511001709    -8.675179524
 H        2.262860451    -1.029636645    -0.043572461
 H        2.276930220     0.477425872     0.906179373
 H        2.259056707     0.546104499    -0.876608846
 H      -19.759421496    18.487966961     3.531110623
 H      -20.467305429    17.846953627     2.027392033
 H      -19.225609340    19.127248273     1.956025341
 H      -19.088661545    15.690171349     4.349419405
 C      -20.023186896    14.725293153     2.641505289
 C      -17.705438140    14.269101853     3.464489211
 H      -15.877663747    16.703268091     3.260297597
 C      -15.990091466    18.760683955     2.580865875
 C      -16.850553470    17.911461239     4.776750135
 H      -17.569680874    15.477327708   -11.284036220
 C      -16.025543628    16.999594904   -11.125823042
 C      -16.110013960    15.200125346   -12.865961956
 H      -16.034021706    12.350049721   -11.595441872
 C      -15.753358989    11.511691782    -9.610852098
 C      -17.893852730    12.480980753   -10.480131538
 H       -5.499850282    13.716271690     1.845476368
 C       -6.270328161    11.690217155     1.990256654
 C       -4.244096079    12.553707775     3.184038443
 H       -2.066292557    13.571595202     1.189939983
 C       -1.773877514    13.574163306    -0.964289089
 C       -3.224799006    15.176675663     0.300224551
 H       -1.772293221    -0.930073336    -1.441403437
 C       -0.293524387    -0.195280374    -2.849223360
 C       -0.169582046    -2.378879386    -1.625421399
 H       -0.153790800    -1.935550255     1.515526180
 C       -0.188464340    -0.226145249     2.856216851
 C       -2.154863374    -1.091422580     1.573239920
 H      -20.877577445    15.410588797     2.570803301
 H      -20.371426775    13.859922057     3.223586144
 H      -19.812813927    14.350160178     1.629535308
 H      -16.821382321    14.610074269     4.017951478
 H      -17.366374450    13.868498345     2.498738858
 H      -18.106311855    13.412408754     4.025905853
 H      -15.745163714    18.560928733     1.527855789
 H      -15.044577615    19.037720612     3.068621789
 H      -16.625723524    19.655650991     2.608309444
 H      -17.233330605    17.073065461     5.372963163
 H      -17.536978447    18.758016927     4.910510997
 H      -15.900179863    18.210619475     5.242575592
 H      -16.286575421    17.345640423   -10.116101493
 H      -16.529984434    17.681483101   -11.824889608
 H      -14.946388572    17.162851569   -11.261017086
 H      -16.451811068    14.202289684   -13.168837659
 H      -15.034601676    15.267058471   -13.082233271
 H      -16.603288740    15.911238338   -13.544551869
 H      -14.655662654    11.480886091    -9.637671114
 H      -16.097075821    10.511534544    -9.910981340
 H      -16.056663073    11.637254718    -8.561246999
 H      -18.401564878    13.147827813   -11.188582765
 H      -18.297869172    12.686665862    -9.478383112
 H      -18.215626267    11.460703213   -10.735207878
 H       -6.951528624    11.750188417     1.130392104
 H       -6.876304544    11.911924449     2.880009235
 H       -5.952104541    10.642279968     2.089031050
 H       -3.429114739    13.286594512     3.238409818
 H       -3.805435575    11.554718063     3.320141476
 H       -4.876683129    12.732305852     4.065590732
 H       -1.303536505    12.583522282    -1.033259424
 H       -0.952695846    14.303177752    -0.921286248
 H       -2.298738854    13.755768220    -1.913555421
 H       -3.827762034    15.395404949     1.190605567
 H       -3.826485375    15.431118979    -0.583587388
 H       -2.386547455    15.888118593     0.315628959
 H       -0.650392275     0.844088969    -2.882424354
 H       -0.761990379    -0.708348304    -3.701097976
 H        0.785393011    -0.180306506    -3.053141334
 H       -0.450682739    -2.982071703    -0.752521318
 H        0.916924193    -2.467063388    -1.757292259
 H       -0.625188548    -2.870249716    -2.497463095
 H        0.900384680    -0.131514254     2.955959651
 H       -0.525831226    -0.815067591     3.721249126
 H       -0.623308771     0.776344259     2.978846000
 H       -2.539677015    -1.663816466     0.719779949
 H       -2.697033499    -0.135735906     1.609902898
 H       -2.453527304    -1.647150943     2.474044926

