187   

Si        0.000000000     0.000000000     0.000000000
 C        1.863593286     0.000000000     0.000000000
 C       -0.686716938     1.707623950     0.000000000
 C        0.012079424     2.755658987    -0.607657073
 C       -0.508779539     4.049536607    -0.607370058
 C       -1.738286872     4.323828933    -0.002798167
 C       -2.441634892     3.270928449     0.597253760
 C       -1.927710778     1.977411485     0.592247720
 C       -2.323397835     5.659815739     0.023049127
 C       -1.763608355     6.755660728    -0.517390983
 C       -2.359774713     8.087283537    -0.484623772
 C       -1.676591804     9.152100481    -1.084978431
 C       -2.211179472    10.439264571    -1.075817034
 C       -3.435264975    10.692968638    -0.449053658
 C       -4.118150379     9.630183601     0.157011492
 C       -3.586807954     8.342941063     0.135568796
Si       -4.200744516    12.365819693    -0.397647200
 C       -4.839680036    12.680268243     1.289163953
 C       -4.275541106    12.140653734     2.378273330
 C       -4.738832759    12.353600250     3.749602802
 C       -4.044760765    11.719809864     4.793217926
 C       -4.434995507    11.882707774     6.110392734
 C       -5.571439855    12.659438007     6.422694694
 C       -6.267550289    13.293561154     5.381989184
 C       -5.837460072    13.153587066     4.065783259
 N       -5.924427398    12.792129533     7.784979478
 C       -6.066976223    11.517526132     8.526805521
 C       -6.972393876    13.775413487     8.102063388
 C       -6.660882137    10.341114868     7.733189865
 C       -8.095342820    10.618788507     7.249876402
 N       -8.543822725     9.724587230     6.173703364
 C       -8.810943721     8.381706618     6.471592162
 C       -8.871099532     7.910336470     7.799231332
 C       -9.137986876     6.574048082     8.056438896
 C       -9.421759467     5.675213562     7.020127033
 C       -9.394495501     6.151614247     5.704965841
 C       -9.095464177     7.476662401     5.426384072
 C       -7.908562875     9.998506976     4.872369779
 C       -9.695673663     4.276550424     7.352335944
 C       -9.978781771     3.327083886     6.450777387
Si      -10.325259206     1.573784664     6.831129005
 C       -9.308929301     0.452716918     5.784940818
 C       -8.228345437     0.929085403     5.036466683
 C       -7.472599227     0.058277682     4.250409281
 C       -7.776114945    -1.304633285     4.202089271
 C       -8.857612395    -1.780219602     4.956537104
 C       -9.615298881    -0.914122854     5.738769175
 C       -7.020485503    -2.258955779     3.398374238
 C       -5.963508784    -1.955552615     2.626334634
 C       -5.221284907    -2.927428200     1.829465058
 C       -5.550303745    -4.285120862     1.798218537
 C       -4.814471446    -5.181086771     1.022730761
 C       -3.728945078    -4.737075884     0.261564705
 C       -3.399291954    -3.375558539     0.289127924
 C       -4.138612300    -2.482739288     1.059615736
Si       -2.745789912    -5.904292686    -0.768092721
 C       -3.185177134    -7.681255905    -0.413519008
 C       -3.068489212    -5.550368349    -2.610475343
 C       -0.902140037    -5.592811554    -0.410909802
 C       -9.973074728     1.206494315     8.665083714
 C      -12.165332284     1.233996437     6.480248015
 C       -2.933423373    13.708859556    -0.850643295
 C       -5.641774069    12.445517470    -1.634529513
 C       -0.664923939    -0.906900931    -1.540491650
 C       -0.638350102    -0.941118102     1.528819272
 H        0.980039050     2.603032391    -1.092882014
 H        0.055300312     4.848685867    -1.084812033
 H       -3.403178886     3.463056534     1.070148880
 H       -2.526739587     1.194839793     1.067618477
 H       -3.290677236     5.723295641     0.531252763
 H       -0.797738358     6.696406698    -1.026453321
 H       -0.718569368     8.975130879    -1.569884597
 H       -1.638337463    11.228351087    -1.569948610
 H       -5.077810485     9.771015537     0.666681095
 H       -4.137773832     7.533744602     0.611728355
 H       -5.703848940    13.354619484     1.356870363
 H       -3.404983676    11.468795230     2.322049332
 H       -3.176378699    11.099432240     4.564707267
 H       -3.864167308    11.418473595     6.911411687
 H       -7.143811006    13.900003477     5.587603809
 H       -6.382263899    13.668407590     3.273568626
 H       -7.002903842    13.924945830     9.195936960
 H       -7.981003949    13.496675693     7.759554897
 H       -6.703666806    14.751162784     7.657906275
 H       -7.478466186    11.016088649     4.844364511
 H       -8.678393563     9.947688935     4.081204685
 H       -7.098504665     9.290434681     4.629951676
 H       -8.692532724     8.580125879     8.633806561
 H       -9.143573274     6.224836390     9.089582555
 H       -9.612527093     5.473166627     4.878547844
 H       -9.089636512     7.813422510     4.394241617
 H       -9.641094102     4.073808291     8.430440333
 H      -10.036036749     3.563602017     5.375675264
 H       -7.942113222     1.985592871     5.041538875
 H       -6.637960085     0.452043449     3.673445854
 H       -9.110141361    -2.838531148     4.931865048
 H      -10.449244323    -1.342451338     6.302295639
 H       -7.380939693    -3.290712884     3.462016498
 H       -5.597963873    -0.927028235     2.558284396
 H       -6.388982040    -4.657894622     2.383137752
 H       -5.120228839    -6.230607017     1.040417668
 H       -2.558736267    -2.973538757    -0.286563424
 H       -3.873146625    -1.426352684     1.064916024
 H       -5.042171560    11.240709043     8.875672232
 H       -6.666420271    11.694308155     9.445906479
 H       -6.016259209    10.103022817     6.862501496
 H       -6.637450319     9.427159957     8.357299086
 H       -8.816487636    10.553678365     8.095172633
 H       -8.178187739    11.662210187     6.863119831
 H        2.264545982    -1.029209203     0.004997456
 H        2.256099109     0.514132268     0.896499950
 H        2.275537269     0.514188076    -0.885475498
 H       -2.564267029    -8.372197405    -1.011284701
 H       -4.242100497    -7.895877910    -0.650273706
 H       -3.021730574    -7.926755024     0.651468000
 H       -2.494146586    -6.340426541    -3.175445898
 C       -4.556373085    -5.684052741    -2.983298016
 C       -2.567160259    -4.172152726    -3.076220919
 H       -0.725878966    -4.499245618    -0.633807163
 C       -0.540597766    -5.841464394     1.064504129
 C        0.046762202    -6.411158479    -1.303880095
 H      -10.535532221     1.992392659     9.248333183
 C      -10.471501602    -0.173112615     9.130532075
 C       -8.477054003     1.331060140     9.007932420
 H      -12.341068122     0.155521891     6.761188064
 C      -13.110472390     2.107194028     7.323760468
 C      -12.520839785     1.400148119     4.992053460
 H       -2.535728325    13.429798963    -1.869225286
 C       -3.548140975    15.116509890    -0.951619254
 C       -1.749550137    13.754418008     0.132410228
 H       -6.059285579    13.491070515    -1.556530659
 C       -5.198418866    12.214138322    -3.089667404
 C       -6.771149408    11.456579401    -1.293696600
 H       -0.558958397    -2.009737357    -1.326419860
 C       -2.150146435    -0.606630793    -1.812544026
 C        0.136813386    -0.596704942    -2.817465663
 H       -1.752120045    -1.058893112     1.383559503
 C       -0.033805553    -2.348645308     1.674365899
 C       -0.411585576    -0.172958247     2.843376023
 H       -4.974723645    -6.674460453    -2.762798152
 H       -4.689811215    -5.528945460    -4.063568194
 H       -5.190924073    -4.937150842    -2.484657400
 H       -1.495814373    -4.012012914    -2.898951777
 H       -3.115583555    -3.341902598    -2.607564957
 H       -2.717268037    -4.065076975    -4.160249017
 H       -1.153346202    -5.258488614     1.767242139
 H        0.503698283    -5.552830316     1.251711689
 H       -0.623806083    -6.897510020     1.353559192
 H       -0.097899601    -6.226701877    -2.376309556
 H       -0.034636559    -7.493402864    -1.138397296
 H        1.091303030    -6.145796353    -1.084293771
 H      -11.550610973    -0.316682169     8.992862635
 H      -10.281459946    -0.296374133    10.206792138
 H       -9.953475442    -1.005079669     8.633629094
 H       -8.044796897     2.306477869     8.745255633
 H       -7.863497597     0.560107976     8.519693751
 H       -8.325198205     1.206372991    10.089099347
 H      -12.973040723     1.978839274     8.405068077
 H      -14.156402579     1.842726269     7.112862506
 H      -13.013733870     3.179799257     7.101465201
 H      -11.914728259     0.769303509     4.326688787
 H      -12.428048448     2.437609967     4.642665071
 H      -13.566959540     1.109444654     4.820200463
 H       -4.344420122    15.191660684    -1.703049217
 H       -2.777206975    15.841869396    -1.250189374
 H       -3.952788432    15.476734044     0.004336232
 H       -1.222869854    12.795487010     0.231961599
 H       -2.047388677    14.071168470     1.142823123
 H       -1.001357043    14.482648980    -0.210958229
 H       -4.452917871    12.939740677    -3.439620175
 H       -6.060486812    12.309626451    -3.765693798
 H       -4.788688697    11.207643232    -3.257445821
 H       -7.173449275    11.584499266    -0.279769252
 H       -6.464654169    10.406149613    -1.401746855
 H       -7.616790286    11.600058549    -1.981436304
 H       -2.812358927    -0.837255072    -0.967959114
 H       -2.507965625    -1.207438345    -2.661417820
 H       -2.327416842     0.443486000    -2.087418796
 H        1.196547322    -0.871247942    -2.742959860
 H        0.085847046     0.461051510    -3.109591046
 H       -0.269726918    -1.166906069    -3.665250219
 H       -0.176020566    -2.983211173     0.789634613
 H       -0.519174614    -2.878145339     2.508478682
 H        1.039451565    -2.332008227     1.903340146
 H       -0.853399491     0.832861583     2.847507352
 H        0.650671407    -0.063326654     3.098308205
 H       -0.875260648    -0.715862889     3.680243552

