187   

Si        0.000000000     0.000000000     0.000000000
 C        1.865079866     0.000000000     0.000000000
 C       -0.682603540     1.709551846     0.000000000
 C        0.108958663     2.803249859     0.364890359
 C       -0.419295681     4.094178197     0.361087117
 C       -1.749621431     4.320470254    -0.001236735
 C       -2.542928523     3.222990346    -0.361801056
 C       -2.018445302     1.933574674    -0.359677388
 C       -2.346412928     5.651740315    -0.020361471
 C       -1.701756597     6.786468997     0.300337541
 C       -2.303679790     8.115673368     0.279472446
 C       -3.635488541     8.332872155    -0.084345202
 C       -4.171993734     9.619987860    -0.091003935
 C       -3.389810877    10.717548523     0.282084998
 C       -2.054770146    10.503132091     0.649854025
 C       -1.518839417     9.218167343     0.643001589
Si       -4.072636127    12.424326465     0.281995599
 C       -3.363993931    13.445938023     1.623791088
 C       -2.945411606    12.956485832     2.798521007
 C       -2.378300062    13.776207407     3.871581095
 C       -1.974370791    13.147244020     5.059962206
 C       -1.432321736    13.878552611     6.103848519
 C       -1.311099201    15.278593391     5.998843689
 C       -1.709284960    15.910143731     4.812421524
 C       -2.216290261    15.158272125     3.757334538
 N       -0.746426886    15.971959103     7.105038748
 C       -1.550852655    15.862303041     8.344440509
 C       -0.320365050    17.357271180     6.836697212
 C       -3.010088278    16.332980375     8.201671667
 C       -3.980903894    15.148439057     8.015389850
 N       -5.197982274    15.490562393     7.257885920
 C       -5.968037550    16.560350653     7.748298602
 C       -6.120989933    16.723057846     9.142664395
 C       -6.874731216    17.769217623     9.647816493
 C       -7.542542829    18.660817274     8.795530346
 C       -7.414814052    18.479456525     7.415979418
 C       -6.648677942    17.446041131     6.892092313
 C       -5.007900806    15.415381415     5.800456987
 C       -8.325824283    19.749647804     9.381996347
 C       -9.002229260    20.656705460     8.665507360
Si       -9.994644908    22.034390618     9.340040265
 C       -9.518114200    23.608043746     8.515199959
 C       -8.278414367    23.725053414     7.877936808
 C       -7.914501122    24.916691294     7.251867042
 C       -8.774427749    26.018341534     7.258130763
 C      -10.013241480    25.900215330     7.902505015
 C      -10.382011229    24.710384461     8.524554612
 C       -8.435901218    27.284407915     6.616487659
 C       -7.285396440    27.529802190     5.966846896
 C       -6.947344101    28.796075649     5.325355243
 C       -7.809026512    29.895913617     5.327545876
 C       -7.445440813    31.088241504     4.701594282
 C       -6.206513778    31.208344080     4.064564831
 C       -5.340006993    30.106691902     4.061508468
 C       -5.708169660    28.916145033     4.681799718
Si       -5.711822689    32.774862303     3.234053671
 C       -6.855355198    34.179500306     3.680610202
 C       -3.928177923    33.187753560     3.755649150
 C       -5.750446985    32.533877351     1.346305541
 C      -11.832740896    21.674442017     9.001618776
 C       -9.744137547    22.213187429    11.216464478
 C       -3.664644700    13.248735777    -1.382293296
 C       -5.962392146    12.383912180     0.500001026
 C       -0.650042952    -0.910664512    -1.540457168
 C       -0.618957242    -0.919771580     1.547196727
 H        1.156500360     2.688443415     0.656937487
 H        0.218825281     4.928966448     0.645293606
 H       -3.581900063     3.377246681    -0.646987913
 H       -2.685613663     1.117117292    -0.650122080
 H       -3.397156073     5.676420863    -0.324560202
 H       -0.651283902     6.763731155     0.604395877
 H       -4.267356932     7.494038060    -0.370235419
 H       -5.217597761     9.726882647    -0.392463181
 H       -1.396587177    11.325800581     0.949393115
 H       -0.478509100     9.071097259     0.927489534
 H       -3.318033527    14.523216168     1.402534617
 H       -2.987887054    11.886338416     3.046344937
 H       -2.076186648    12.065706648     5.159574964
 H       -1.084898416    13.375820285     7.004098878
 H       -1.625691401    16.987282498     4.702077631
 H       -2.501754084    15.666729944     2.835460955
 H        0.282367973    17.711552825     7.691667870
 H       -1.147740694    18.066276115     6.678186694
 H        0.339290700    17.373486161     5.951441142
 H       -4.437797981    14.502541917     5.543871830
 H       -4.464971846    16.276787529     5.379013173
 H       -5.991366139    15.325268876     5.306254266
 H       -5.644618415    16.027090229     9.827003555
 H       -6.961656325    17.889158892    10.727966781
 H       -7.924034206    19.158156379     6.729638905
 H       -6.573194647    17.344315885     5.814058808
 H       -8.304462732    19.754454043    10.479537204
 H       -9.010728021    20.616973129     7.563229751
 H       -7.562520817    22.896995211     7.845590332
 H       -6.947184925    24.981912536     6.757276726
 H      -10.697285475    26.746365661     7.918296280
 H      -11.361444461    24.675605526     9.009371329
 H       -9.205254855    28.057999939     6.697036272
 H       -6.515894958    26.756451345     5.886334676
 H       -8.777550224    29.830082736     5.819859423
 H       -8.162171792    31.913387686     4.736066576
 H       -4.358678460    30.142706474     3.579992226
 H       -5.022627780    28.070977099     4.667529672
 H       -1.507602937    14.802393009     8.681602846
 H       -1.035080644    16.448448427     9.137636903
 H       -3.311450452    16.926674858     9.084327260
 H       -3.103295166    17.031053735     7.347211099
 H       -3.473093740    14.306000629     7.490342305
 H       -4.289375786    14.741776765     9.004852936
 H        2.262525182    -1.029514497    -0.050591755
 H        2.275966604     0.470484332     0.910346570
 H        2.260557091     0.551702523    -0.872302613
 H       -6.530629023    35.122892192     3.206387823
 H       -6.871128837    34.345820670     4.773060332
 H       -7.891628388    33.983063303     3.354222065
 H       -3.296374205    32.317942445     3.411201016
 C       -3.374608184    34.462859814     3.095214837
 C       -3.773521130    33.305541245     5.282771659
 H       -5.500336112    33.542272263     0.905886755
 C       -4.714021552    31.519690677     0.830336888
 C       -7.142069828    32.120801033     0.833021425
 H      -12.407750675    22.528782750     9.462472603
 C      -12.158921466    21.639246829     7.497863302
 C      -12.318914272    20.367389147     9.651846234
 H       -9.956006178    21.195223589    11.655425538
 C       -8.300071649    22.603225850    11.581712351
 C      -10.707775101    23.220998768    11.868427645
 H       -4.115094537    14.282095104    -1.339500919
 C       -2.148573112    13.396611143    -1.603186334
 C       -4.276066851    12.510288494    -2.585573462
 H       -6.364704627    11.786006132    -0.367958390
 C       -6.384629658    11.682607226     1.803480738
 C       -6.608137240    13.780309524     0.454334696
 H       -1.774709185    -0.921029365    -1.443035634
 C       -0.297748188    -0.180713450    -2.849192392
 C       -0.173715785    -2.371027386    -1.636916779
 H       -0.135343390    -1.938530314     1.511137422
 C       -0.186907246    -0.232381089     2.855479587
 C       -2.145230168    -1.116660021     1.573883036
 H       -3.381322695    34.422224500     1.998321048
 H       -2.325956225    34.613438947     3.390549819
 H       -3.911853457    35.370838255     3.399718098
 H       -4.095029638    32.402795809     5.821850966
 H       -4.323307805    34.156676544     5.705878801
 H       -2.716833255    33.458984441     5.544301744
 H       -3.680016271    31.785886538     1.083506059
 H       -4.756184796    31.465837912    -0.267374866
 H       -4.899064930    30.498746430     1.192917123
 H       -7.931703452    32.840234386     1.085243065
 H       -7.458981916    31.135450471     1.204156636
 H       -7.132641546    32.047447616    -0.263953704
 H      -11.873884975    22.559206414     6.968292264
 H      -13.242004818    21.523499306     7.350047327
 H      -11.685132214    20.795770502     6.977049486
 H      -12.202109165    20.354404891    10.743095952
 H      -11.812556097    19.476542592     9.252751659
 H      -13.391118193    20.225051810     9.455461916
 H       -7.544365000    21.909891528    11.187918977
 H       -8.175083636    22.609475472    12.673500858
 H       -8.031411810    23.611659140    11.235181923
 H      -11.765132692    22.953968091    11.746295827
 H      -10.573337258    24.245781365    11.494589981
 H      -10.526936012    23.266121048    12.952274642
 H       -1.644829172    13.966995393    -0.811044159
 H       -1.955185815    13.935636325    -2.541653220
 H       -1.634016955    12.428970769    -1.694565068
 H       -5.371328457    12.450146207    -2.549504185
 H       -3.888391554    11.488066467    -2.703594900
 H       -4.028761734    13.039615770    -3.517365800
 H       -6.009561641    10.653218874     1.887869531
 H       -7.480437155    11.615256969     1.858009885
 H       -6.063518978    12.225582201     2.704536218
 H       -6.420143840    14.317087601    -0.484180526
 H       -6.287194436    14.427516433     1.282610349
 H       -7.700930723    13.691007090     0.540734978
 H       -0.655948290     0.858384311    -2.876711063
 H       -0.766767295    -0.689722224    -3.703241090
 H        0.780909688    -0.163687519    -3.054274176
 H       -0.454694183    -2.978454812    -0.766915384
 H        0.912612114    -2.459596015    -1.770197502
 H       -0.630497944    -2.857347611    -2.511191432
 H        0.901126016    -0.128170911     2.955139572
 H       -0.518766211    -0.825500053     3.719773707
 H       -0.630257998     0.766102137     2.979785561
 H       -2.526188178    -1.685915591     0.716604716
 H       -2.697548823    -0.167416808     1.621129110
 H       -2.435022991    -1.683643374     2.470642942

