187   

Si        0.000000000     0.000000000     0.000000000
 C        1.865085616     0.000000000     0.000000000
 C       -0.672248820     1.714302371     0.000000000
 C        0.102665488     2.786189447    -0.455143746
 C       -0.409893469     4.083140499    -0.453631669
 C       -1.707626907     4.337823970    -0.002378525
 C       -2.484883741     3.262306677     0.447423437
 C       -1.976626440     1.966177603     0.445590792
 C       -2.285363185     5.677509453     0.017374296
 C       -1.649276829     6.790174880    -0.386601965
 C       -2.227332081     8.129344733    -0.366652818
 C       -1.450691085     9.204602441    -0.818052257
 C       -1.960134774    10.500503293    -0.817558614
 C       -3.263078848    10.749027383    -0.369885474
 C       -4.039660753     9.678513358     0.086670777
 C       -3.522116954     8.383923150     0.095039264
Si       -3.958747764    12.449363442    -0.359124207
 C       -5.763827627    12.346919251    -0.642943846
 C       -6.692566049    12.950109908     0.109628565
 C       -8.136364203    12.862764951    -0.124789939
 C       -8.994677342    13.549346625     0.747628005
 C      -10.369049667    13.503168107     0.575126697
 C      -10.917980675    12.741058796    -0.470101655
 C      -10.072147822    12.024798815    -1.322701905
 C       -8.693845439    12.070611570    -1.131689898
 N      -12.347786450    12.753031561    -0.570770655
 C      -12.843193549    13.976668551    -1.244480989
 C      -12.930367350    11.516005222    -1.120044824
 C      -12.605825549    14.020392447    -2.766578241
 C      -12.105620374    15.385090356    -3.277417930
 N      -10.648210656    15.613027509    -3.183265289
 C       -9.816527162    14.598876077    -3.698501633
 C      -10.238254243    13.838732779    -4.810644886
 C       -9.428594470    12.839093179    -5.325540142
 C       -8.159603351    12.584208359    -4.788388697
 C       -7.723732360    13.370105883    -3.718134731
 C       -8.520645180    14.379223330    -3.194442197
 C      -10.236015788    16.200466645    -1.896138913
 C       -7.347395297    11.516226747    -5.371705008
 C       -6.122940884    11.183857766    -4.941962491
Si       -5.101684666     9.850554207    -5.665621113
 C       -6.150271313     8.508674935    -6.360181329
 C       -7.348607833     8.172635672    -5.714741076
 C       -8.161441296     7.161514713    -6.218212613
 C       -7.793645212     6.452491763    -7.369813387
 C       -6.594900416     6.784349013    -8.006382936
 C       -5.780005788     7.800393531    -7.506875577
 C       -8.679570175     5.401231311    -7.858508739
 C       -8.449463191     4.650935417    -8.949364353
 C       -9.336778192     3.599999643    -9.436477255
 C      -10.535234417     3.269427973    -8.798626165
 C      -11.354146295     2.257122570    -9.298627416
 C      -10.987825973     1.547794026   -10.446671614
 C       -9.786061046     1.876901827   -11.088291585
 C       -8.973751982     2.891649829   -10.589928884
Si      -12.057291733     0.209241920   -11.119154361
 C      -13.374624384    -0.295605910    -9.898507099
 C      -12.901338261     0.812583035   -12.715109990
 C      -10.951548756    -1.280394173   -11.546049676
 C       -3.946756134    10.571247885    -6.989826725
 C       -4.059837625     9.123329737    -4.247663166
 C       -3.579737102    13.231265089     1.334827408
 C       -3.166446901    13.549725563    -1.691558381
 C       -0.627847986    -0.907992826    -1.550329948
 C       -0.651240209    -0.916819613     1.535974608
 H        1.124898900     2.649438360    -0.818591120
 H        0.214688444     4.900083338    -0.810393914
 H       -3.499325619     3.438271480     0.800766909
 H       -2.630971564     1.166955600     0.804781304
 H       -3.311112091     5.727851579     0.394975242
 H       -0.624288448     6.739363942    -0.764975186
 H       -0.438284422     9.027671187    -1.175592316
 H       -1.308599471    11.300097051    -1.180105684
 H       -5.064782707     9.816401631     0.447326803
 H       -4.141093486     7.567141714     0.462412969
 H       -6.044701357    11.726224429    -1.511172270
 H       -6.439531255    13.575239001     0.976526324
 H       -8.578979851    14.134658976     1.567320960
 H      -11.034374796    14.032889083     1.254724626
 H      -10.479387209    11.429207750    -2.135847589
 H       -8.049237303    11.492701940    -1.798268123
 H      -14.022844336    11.548343245    -0.965883829
 H      -12.542339579    10.652385480    -0.551637078
 H      -12.736154162    11.344897324    -2.189597513
 H      -10.973020488    16.949502648    -1.566031726
 H       -9.278246312    16.734591938    -2.036332233
 H      -10.110401825    15.453250852    -1.092232952
 H      -11.201567084    14.033175737    -5.272225714
 H       -9.784508409    12.250985767    -6.172360934
 H       -6.732384656    13.209193811    -3.288295587
 H       -8.137744312    14.968688835    -2.366294085
 H       -7.843926305    11.001486991    -6.205993878
 H       -5.647367421    11.719557529    -4.105059227
 H       -7.684019971     8.690142884    -4.808754254
 H       -9.091177078     6.918127225    -5.707892846
 H       -6.285421375     6.248649862    -8.901667849
 H       -4.854226943     8.014136254    -8.047680602
 H       -9.582953170     5.250272373    -7.260164305
 H       -7.546142659     4.801182524    -9.547657457
 H      -10.841258987     3.803397197    -7.900852865
 H      -12.279808692     2.044872154    -8.756674549
 H       -9.448298993     1.356308495   -11.988817460
 H       -8.045125013     3.134164841   -11.103101063
 H      -13.931324384    14.049309169    -1.023087313
 H      -12.368697323    14.851632025    -0.747904608
 H      -11.877883950    13.231978927    -3.052177735
 H      -13.538453063    13.754006316    -3.296463027
 H      -12.378834351    15.499621890    -4.354648797
 H      -12.631682661    16.210785211    -2.750570613
 H        2.263135917    -1.029074767     0.053941700
 H        2.259427107     0.555001005     0.870790945
 H        2.276269946     0.467894546    -0.911403075
 H      -13.983721524    -1.128745302   -10.292201438
 H      -14.060921112     0.538073774    -9.668588881
 H      -12.924351473    -0.634414868    -8.947755793
 H      -13.580129107    -0.029193838   -13.037271693
 C      -13.768722402     2.064144386   -12.486987344
 C      -11.918065904     1.097353738   -13.864486684
 H      -10.216878666    -0.908799994   -12.318425611
 C      -10.146326815    -1.782816992   -10.334028896
 C      -11.723122982    -2.461864992   -12.160292093
 H       -3.336345763     9.704130317    -7.375870474
 C       -4.722153332    11.176353859    -8.173961857
 C       -2.970888092    11.628021121    -6.441347782
 H       -3.487319710     9.988696836    -3.802179485
 C       -4.941805943     8.518529768    -3.141543178
 C       -3.041573085     8.067207393    -4.707164645
 H       -4.107829341    14.227958188     1.345635440
 C       -4.118564076    12.389245848     2.505593292
 C       -2.079021658    13.485561611     1.561845424
 H       -2.080759261    13.645963957    -1.397963258
 C       -3.221821397    12.948956621    -3.105103460
 C       -3.775982283    14.963186982    -1.732281970
 H       -0.156760575    -1.932595466    -1.518730803
 C       -2.156656235    -1.085209958    -1.574567194
 C       -0.189740854    -0.220816056    -2.856552359
 H       -1.776086262    -0.923615954     1.440117534
 C       -0.178989548    -2.379194391     1.622939461
 C       -0.294278012    -0.196183496     2.848690281
 H      -14.556119420     1.918766974   -11.736345460
 H      -14.281013868     2.342565563   -13.419089841
 H      -13.179761173     2.942537707   -12.185717130
 H      -11.317238283     0.224759943   -14.150293019
 H      -11.228968616     1.924178275   -13.641445652
 H      -12.471697913     1.396447822   -14.766482494
 H       -9.523700381    -1.002389364    -9.873207450
 H       -9.457607301    -2.581734212   -10.643625713
 H      -10.779533639    -2.209304605    -9.544851155
 H      -12.267492425    -2.196768296   -13.075841769
 H      -12.441163076    -2.913558475   -11.463106733
 H      -11.022867713    -3.262264265   -12.440483050
 H       -5.402791488    10.464593776    -8.660995828
 H       -4.023145616    11.514166586    -8.951582465
 H       -5.316176721    12.057062779    -7.889090394
 H       -2.322500684    11.246807337    -5.641600461
 H       -3.482026832    12.524638095    -6.063434205
 H       -2.300709025    11.971496810    -7.242125805
 H       -5.649722770     9.236080516    -2.705130324
 H       -4.307565029     8.172884528    -2.309386832
 H       -5.510728907     7.640600317    -3.475988135
 H       -2.313961698     8.448608326    -5.433604254
 H       -3.514806249     7.175188004    -5.140853246
 H       -2.458459950     7.711440864    -3.843797269
 H       -5.197491227    12.191626129     2.446890704
 H       -3.952504833    12.914835262     3.456568549
 H       -3.611351256    11.417846452     2.599535640
 H       -1.637933722    14.176271954     0.832138942
 H       -1.481764683    12.562634735     1.555253158
 H       -1.920445509    13.943435012     2.549325692
 H       -2.818402999    11.928573389    -3.164879441
 H       -2.621691236    13.556351481    -3.797843720
 H       -4.241175278    12.934259050    -3.517864837
 H       -3.686181841    15.505966630    -0.783086030
 H       -4.838308336    14.964603399    -2.017501909
 H       -3.256122953    15.575405514    -2.483240689
 H       -2.542305228    -1.659379829    -0.722703126
 H       -2.456496682    -1.637862500    -2.476970246
 H       -2.697508335    -0.128609615    -1.608913959
 H        0.899080370    -0.127280406    -2.956868781
 H       -0.623658862     0.782346598    -2.977485530
 H       -0.528297858    -0.807654819    -3.722593764
 H       -0.459980666    -2.979696392     0.748109938
 H       -0.638679330    -2.870718882     2.492732907
 H        0.906856359    -2.471554374     1.757433317
 H       -0.648314289     0.844075438     2.883414537
 H        0.784824338    -0.184413479     3.051974927
 H       -0.763610523    -0.709066268     3.700260203

