187   

Si        0.000000000     0.000000000     0.000000000
 C        1.865140166     0.000000000     0.000000000
 C       -0.677575236     1.711717119     0.000000000
 C        0.127450193     2.806273513    -0.331166766
 C       -0.396105618     4.098995807    -0.328000927
 C       -1.735088681     4.326795235     0.000065663
 C       -2.541662445     3.228676938     0.327612776
 C       -2.021641226     1.937349876     0.326712108
 C       -2.325676399     5.660994786     0.016529197
 C       -1.664290265     6.793891462    -0.274971072
 C       -2.254504786     8.128325828    -0.258629983
 C       -3.594149597     8.356162079     0.069606618
 C       -4.117114384     9.648573438     0.072649517
 C       -3.305102040    10.742796026    -0.243000181
 C       -1.962290386    10.519143103    -0.572180424
 C       -1.446565227     9.225676117    -0.584092235
Si       -3.979515054    12.454288252    -0.243568487
 C       -2.600070024    13.637710388    -0.051302494
 C       -2.372428147    14.710427917    -0.819571782
 C       -1.250064178    15.630843039    -0.624426280
 C       -1.112905848    16.723847600    -1.494579635
 C       -0.069501890    17.622175572    -1.352063450
 C        0.897734558    17.431635666    -0.342395919
 C        0.760186809    16.343740328     0.533301079
 C       -0.315725354    15.472140245     0.400725295
 N        1.942475923    18.379849310    -0.241490609
 C        2.715196468    18.602115831    -1.486748291
 C        2.787578232    18.297379972     0.961060106
 C        2.899917201    17.374971276    -2.394456111
 C        3.668282310    16.228292095    -1.712545409
 N        3.445838106    14.918272921    -2.351685733
 C        3.818236395    14.794521414    -3.702314381
 C        4.935431266    15.504446244    -4.193155601
 C        5.311246117    15.390018883    -5.521725451
 C        4.629227729    14.534787470    -6.398683759
 C        3.543292578    13.808104614    -5.902758188
 C        3.142668689    13.923102844    -4.578319750
 C        2.171564148    14.294752687    -1.955167568
 C        5.067231813    14.451217693    -7.793071080
 C        4.489273223    13.669014680    -8.713975289
Si        4.988703687    13.521626823   -10.465077101
 C        5.170268261    11.745947325   -10.911021888
 C        5.373517489    10.784717934    -9.913207501
 C        5.511235765     9.440053906   -10.248246260
 C        5.460117099     9.025203248   -11.585350679
 C        5.263139206     9.988351069   -12.579208631
 C        5.120335488    11.334896807   -12.247350425
 C        5.609646443     7.605006217   -11.885499533
 C        5.575744094     7.075762074   -13.120279042
 C        5.725350060     5.655447732   -13.419647428
 C        5.922260759     4.692135419   -12.426883129
 C        6.060472465     3.344316039   -12.758057663
 C        5.997782575     2.929544370   -14.091967758
 C        5.799283271     3.893581225   -15.089720335
 C        5.667241264     5.238695571   -14.756436440
Si        6.178231380     1.154836040   -14.546042488
 C        6.065811647     0.048264833   -13.048489320
 C        4.806614291     0.717259146   -15.791330911
 C        7.865787780     0.880485747   -15.382613946
 C        3.637868272    14.309682262   -11.549477635
 C        6.634649254    14.415870218   -10.792603443
 C       -4.921899943    12.750374481    -1.867955139
 C       -5.182081182    12.671760186     1.213520963
 C       -0.617297870    -0.919039433    -1.548161407
 C       -0.655056501    -0.906865677     1.540366025
 H        1.182186272     2.690790201    -0.595903491
 H        0.252854449     4.933958588    -0.586127280
 H       -3.587355348     3.384035262     0.586234334
 H       -2.698946655     1.120598008     0.591722176
 H       -3.384124076     5.689485700     0.291410702
 H       -0.605935403     6.765545274    -0.550521196
 H       -4.243240065     7.520602168     0.324809880
 H       -5.172696615     9.764895554     0.332932017
 H       -1.283460006    11.338653086    -0.830565131
 H       -0.402004401     9.069023968    -0.847202831
 H       -1.938796257    13.395511207     0.798046716
 H       -3.014837922    14.984160306    -1.666420443
 H       -1.842960210    16.875238236    -2.290529442
 H        0.005893974    18.484222744    -2.011063035
 H        1.482929328    16.171900509     1.324863843
 H       -0.414307224    14.644497688     1.105246980
 H        3.412259949    19.206401467     1.020202878
 H        3.447804701    17.417226663     0.998035892
 H        2.144643979    18.297993035     1.859985353
 H        1.967687337    14.489451591    -0.887183469
 H        2.252097566    13.199185849    -2.073399573
 H        1.303147888    14.658867136    -2.529366314
 H        5.506576768    16.149648249    -3.532461980
 H        6.162993543    15.966165177    -5.884238615
 H        2.994802134    13.133489212    -6.562615653
 H        2.293168115    13.339937957    -4.236346638
 H        5.928211355    15.095042331    -8.014697518
 H        3.620713147    13.038914350    -8.457922902
 H        5.426701112    11.052447838    -8.852611740
 H        5.663399918     8.705502561    -9.459602197
 H        5.219422110     9.692142501   -13.625415474
 H        4.966899099    12.041946603   -13.067085272
 H        5.757642530     6.965785225   -11.009996214
 H        5.427821297     7.714341718   -13.995947708
 H        5.970686902     4.988389072   -11.380562557
 H        6.213735276     2.637610798   -11.937775158
 H        5.740729000     3.627896270   -16.148985432
 H        5.514993325     5.972623349   -15.545481980
 H        2.169154762    19.394309362    -2.055338297
 H        3.706348190    19.035198731    -1.231091344
 H        1.912635083    17.004971251    -2.739146522
 H        3.425047856    17.678856026    -3.321466418
 H        4.760873843    16.438665647    -1.703916170
 H        3.370005077    16.138327484    -0.643211548
 H        2.263451993    -1.029101421     0.051520279
 H        2.260836892     0.552802906     0.871503671
 H        2.275228751     0.469508732    -0.911294047
 H        6.131083010    -1.016749059   -13.334279589
 H        5.104978639     0.191565470   -12.521437868
 H        6.878659243     0.249580359   -12.328854194
 H        4.968269581     1.394501865   -16.679971062
 C        4.870914884    -0.737361300   -16.289845594
 C        3.397370201     0.996169269   -15.237984398
 H        7.935354719    -0.229930169   -15.570758814
 C        8.011043282     1.602248885   -16.734243736
 C        9.044606458     1.285695165   -14.478462755
 H        4.002976838    14.223364638   -12.613558063
 C        2.292779265    13.568787294   -11.447202051
 C        3.414439817    15.801046690   -11.242677666
 H        6.499374230    15.466663531   -10.404075035
 C        7.811362916    13.771975439   -10.036423190
 C        6.996537674    14.503386794   -12.286051768
 H       -5.213859487    13.840445607    -1.863968940
 C       -4.046187457    12.492376178    -3.108033793
 C       -6.207478801    11.913103742    -1.988321691
 H       -6.020143612    11.936932083     1.036418519
 C       -4.534646730    12.335627498     2.568698177
 C       -5.792893135    14.082282829     1.284250533
 H       -0.129510550    -1.935916305    -1.515057706
 C       -2.142717653    -1.122743714    -1.574597093
 C       -0.189517372    -0.226971509    -2.855417892
 H       -1.779556165    -0.913333803     1.441185772
 C       -0.183627258    -2.368733265     1.638394722
 C       -0.301974699    -0.177032605     2.848982094
 H        5.826503159    -0.991892023   -16.766203826
 H        4.094169814    -0.908194367   -17.049407394
 H        4.687748481    -1.471538708   -15.494155254
 H        3.258541770     2.036013792   -14.908693791
 H        3.130102679     0.344247687   -14.395819858
 H        2.643672887     0.818402521   -16.018185009
 H        7.250549009     1.309617840   -17.469102442
 H        8.983416637     1.358888557   -17.186872021
 H        7.984823268     2.696845510   -16.637982354
 H        9.063701158     0.750642338   -13.520315924
 H        9.063353099     2.362881721   -14.258361870
 H        9.997560012     1.057123244   -14.976792276
 H        2.364687381    12.499648161   -11.692390118
 H        1.571121165    13.997953494   -12.156579731
 H        1.833348831    13.651091341   -10.452607415
 H        4.315148831    16.413146963   -11.379475352
 H        3.044559846    15.976934173   -10.222301729
 H        2.654886750    16.215450138   -11.920656522
 H        7.652768371    13.704090559    -8.951367963
 H        8.723565303    14.367964581   -10.178964277
 H        8.045471632    12.759719078   -10.396827416
 H        6.249717074    15.039962577   -12.884769808
 H        7.153176557    13.517832683   -12.746831754
 H        7.941212805    15.052143796   -12.411963845
 H       -3.119577354    13.082239820    -3.123976629
 H       -4.597530449    12.757917218    -4.021066576
 H       -3.763709853    11.435052948    -3.216603126
 H       -6.935060391    12.114298768    -1.191730709
 H       -6.014363632    10.831041996    -2.003005670
 H       -6.718715962    12.143736454    -2.934453963
 H       -4.109437636    11.322799982     2.609434478
 H       -5.287911358    12.383781406     3.368073522
 H       -3.741021735    13.040880968     2.851037591
 H       -6.348191312    14.362368922     0.379795962
 H       -5.043294950    14.864858797     1.470140475
 H       -6.510254267    14.140809022     2.115390000
 H       -2.521166671    -1.693606329    -0.717302978
 H       -2.429929022    -1.691039389    -2.471352589
 H       -2.699217256    -0.176009882    -1.622313956
 H        0.897751330    -0.114079774    -2.954215940
 H       -0.640306628     0.768353418    -2.978786342
 H       -0.516036835    -0.821351378    -3.720800820
 H       -0.461198182    -2.974655691     0.766247489
 H       -0.646826098    -2.854642380     2.509498431
 H        0.901701046    -2.460379248     1.777746965
 H       -0.658333660     0.862725398     2.875590459
 H        0.776598577    -0.161958378     3.054598206
 H       -0.772543529    -0.684756299     3.702928596

