187   

Si        0.000000000     0.000000000     0.000000000
 C        1.864979835     0.000000000     0.000000000
 C       -0.666586299     1.716580336     0.000000000
 C        0.058021008     2.754741431    -0.595945668
 C       -0.440573388     4.056886600    -0.599675131
 C       -1.675785096     4.350802779    -0.015578481
 C       -2.403571354     3.308886581     0.573810775
 C       -1.908579412     2.007322334     0.578663673
 C       -2.236500260     5.697843485     0.003973171
 C       -1.642189746     6.780894435    -0.524849043
 C       -2.200730463     8.128694844    -0.506584069
 C       -3.435438563     8.425662173     0.076632742
 C       -3.931545588     9.729273291     0.071310641
 C       -3.208961515    10.761234989    -0.534500409
 C       -1.971746602    10.466109412    -1.123835075
 C       -1.473496662     9.166613081    -1.104700560
Si       -3.825621976    12.494022567    -0.564647746
 C       -3.403455334    13.309654394    -2.147287702
 C       -3.283519505    12.651656669    -3.308022634
 C       -2.946799744    13.284120243    -4.584788501
 C       -2.852708444    12.475959466    -5.728746752
 C       -2.537415824    13.021449379    -6.961612594
 C       -2.265096550    14.400051806    -7.076808154
 C       -2.359468433    15.211561266    -5.936880576
 C       -2.717615785    14.655535110    -4.712832704
 N       -1.949375312    14.891408545    -8.368774996
 C       -0.730751820    14.317140107    -8.974458170
 C       -2.074974889    16.344444962    -8.556758760
 C        0.598677853    15.010771458    -8.628863020
 C        1.023418334    14.891131542    -7.153578282
 N        1.560420821    13.582644652    -6.745291963
 C        2.562443185    13.008830748    -7.538294931
 C        3.540547585    13.838459347    -8.131620430
 C        4.539232151    13.290692312    -8.918842826
 C        4.636988428    11.904208149    -9.107937106
 C        3.686494222    11.083314648    -8.495360822
 C        2.666961254    11.615588128    -7.717180362
 C        0.577800694    12.680271032    -6.132351914
 C        5.712407108    11.379696262    -9.950153337
 C        5.904758803    10.077698682   -10.202350363
Si        7.246963327     9.419371645   -11.253811139
 C        8.745751199    10.485381927   -11.213089947
 C        9.060717939    11.201880387   -10.052527496
 C       10.192866893    12.013682502   -10.006415221
 C       11.042380418    12.117901713   -11.111649041
 C       10.730203882    11.392894723   -12.268935983
 C        9.597342575    10.584194379   -12.319816644
 C       12.237696792    12.954783977   -11.108595571
 C       12.648489745    13.698050594   -10.067027616
 C       13.843640848    14.535143738   -10.063228773
 C       14.691710270    14.644055339   -11.168248999
 C       15.824472592    15.456654155   -11.120796664
 C       16.129965138    16.184675607    -9.966653140
 C       15.280140299    16.078067679    -8.857205501
 C       14.153545425    15.262008953    -8.905696979
Si       17.620869449    17.261642986    -9.887484632
 C       18.368436806    17.523127561   -11.576391076
 C       17.109712845    18.930371348    -9.127033221
 C       18.926395738    16.456328011    -8.760107622
 C        7.712795285     7.688866093   -10.614572264
 C        6.607308298     9.258631320   -13.038796171
 C       -5.712267481    12.538490801    -0.330361896
 C       -3.009560199    13.463376924     0.853611492
 C       -0.631881711    -0.899908689    -1.553652275
 C       -0.647836146    -0.928760022     1.530646055
 H        1.030262775     2.587078602    -1.067922744
 H        0.145028830     4.847423604    -1.065484596
 H       -3.368448732     3.515327379     1.033186341
 H       -2.522883818     1.235823204     1.050929451
 H       -3.210624156     5.781003331     0.494700671
 H       -0.667686272     6.696726745    -1.015020964
 H       -4.021153851     7.637351416     0.545703019
 H       -4.898538323     9.901269436     0.551730778
 H       -1.363492588    11.235399772    -1.612211602
 H       -0.508997879     8.956962677    -1.563595126
 H       -3.269344862    14.399681534    -2.086979686
 H       -3.422281930    11.563546098    -3.389944428
 H       -3.047334249    11.405208221    -5.650431576
 H       -2.511460573    12.393627890    -7.850242965
 H       -2.162435582    16.277377836    -5.998367080
 H       -2.801273765    15.305648194    -3.841081724
 H       -1.962521413    16.576849341    -9.630216072
 H       -1.344565043    16.943797209    -7.991325700
 H       -3.092684651    16.657985034    -8.261349217
 H       -0.113650230    13.253785541    -5.486863808
 H        1.103137326    11.962177501    -5.475986024
 H       -0.028665567    12.121528560    -6.863713319
 H        3.513218477    14.911769130    -7.969577721
 H        5.271880697    13.950812310    -9.385453796
 H        3.739475906    10.001520846    -8.626397345
 H        1.945734402    10.942694539    -7.265484871
 H        6.363527022    12.165838125   -10.358771624
 H        5.232237393     9.311590346    -9.787937649
 H        8.435229452    11.154577881    -9.154216480
 H       10.412107085    12.566561307    -9.094685208
 H       11.378808750    11.459430283   -13.140147170
 H        9.406256038    10.042035486   -13.249720219
 H       12.806917651    12.943258498   -12.042643572
 H       12.079421016    13.709285475    -9.132670966
 H       14.474255080    14.091036365   -12.080103026
 H       16.450187500    15.500170377   -12.016501000
 H       15.468139386    16.624642028    -7.928660583
 H       13.506431892    15.191180671    -8.033412515
 H       -0.664694067    13.237709841    -8.711117895
 H       -0.883186808    14.355102934   -10.080359597
 H        1.391224634    14.583902616    -9.280156960
 H        0.548740701    16.081593507    -8.901883284
 H        1.812481018    15.651290873    -6.935410627
 H        0.167195364    15.149632158    -6.489084575
 H        2.263337066    -1.028959798     0.053514169
 H        2.258708809     0.555009368     0.871318624
 H        2.277305928     0.469334890    -0.910086492
 H       19.236106437    18.205088225   -11.526736897
 H       17.633956431    17.971475956   -12.269853686
 H       18.716600850    16.574424413   -12.021078293
 H       16.719097319    18.692758124    -8.094925981
 C       18.279389444    19.918543638    -8.972255333
 C       15.976155895    19.613347093    -9.913364606
 H       19.829729227    17.130512384    -8.810921849
 C       18.491906892    16.351987578    -7.287362137
 C       19.346138778    15.058293563    -9.250300082
 H        6.769986026     7.071951867   -10.668510357
 C        8.787434388     6.996667579   -11.470729857
 C        8.182180066     7.717351271    -9.148828467
 H        7.443234659     8.785817695   -13.630534323
 C        5.369767097     8.351400848   -13.159055672
 C        6.286952237    10.625723828   -13.669388304
 H       -5.915053127    12.045682821     0.664284321
 C       -6.283679169    13.966678902    -0.276435456
 C       -6.456219759    11.745919612    -1.420059956
 H       -3.424549665    14.510848505     0.795136940
 C       -3.342774544    12.892936481     2.242963366
 C       -1.480219300    13.546423095     0.700152940
 H       -0.168566077    -1.928053241    -1.524754758
 C       -2.162112670    -1.064837250    -1.577680892
 C       -0.187926669    -0.212952548    -2.858038615
 H       -1.773297759    -0.922337154     1.444858117
 C       -0.192150717    -2.397771523     1.594160076
 C       -0.269448895    -0.230975342     2.849728717
 H       19.101341151    19.526798015    -8.359192455
 H       17.932736617    20.834553526    -8.471917493
 H       18.701780575    20.236350365    -9.934718021
 H       15.080081666    18.984669382   -10.016695465
 H       16.279714347    19.924330849   -10.921754638
 H       15.652272507    20.525686572    -9.392524420
 H       18.255324729    17.322233713    -6.832658666
 H       19.306285003    15.922424137    -6.685658223
 H       17.625633128    15.690893255    -7.143848787
 H       19.748049414    15.056042310   -10.271631205
 H       18.524056382    14.328892919    -9.214788423
 H       20.141620643    14.656298906    -8.606518236
 H        8.486493613     6.853413476   -12.516241868
 H        8.997541529     5.993566467   -11.072071377
 H        9.747200988     7.533152563   -11.468967850
 H        7.441092478     8.148393065    -8.461705296
 H        9.122407354     8.270988282    -9.012178179
 H        8.373917046     6.694873934    -8.794090605
 H        5.542332314     7.328672188   -12.800577605
 H        5.072297669     8.260177713   -14.213641492
 H        4.494471994     8.750401811   -12.627367639
 H        7.142136696    11.315849489   -13.674106592
 H        5.451710438    11.139655691   -13.171706335
 H        5.988755168    10.497338648   -14.719224077
 H       -5.859018666    14.576743846     0.530961880
 H       -7.367641910    13.930305104    -0.094101547
 H       -6.150677736    14.516352419    -1.218716248
 H       -6.144951865    10.694315154    -1.487279262
 H       -6.342920040    12.186906918    -2.421222006
 H       -7.534875715    11.734616427    -1.209010097
 H       -4.417328525    12.887606940     2.466189932
 H       -2.870274534    13.505736899     3.024525511
 H       -2.966121589    11.870076567     2.387925831
 H       -1.159626134    13.994378117    -0.250184440
 H       -0.988558191    12.566738482     0.788752502
 H       -1.055268685    14.174849149     1.495924651
 H       -2.551396938    -1.640654916    -0.728455478
 H       -2.467289672    -1.609932320    -2.482745305
 H       -2.695509960    -0.103950053    -1.604939712
 H        0.901858924    -0.130604853    -2.958479387
 H       -0.611945526     0.794696957    -2.975571202
 H       -0.532753613    -0.793960183    -3.725507509
 H       -0.491423185    -2.984383086     0.716009576
 H       -0.646835748    -2.894163879     2.463869275
 H        0.894127834    -2.504920166     1.713736958
 H       -0.603589839     0.815013500     2.900980893
 H        0.811266757    -0.241413075     3.045065763
 H       -0.741555959    -0.746583895     3.698123661

