187   

Si        0.000000000     0.000000000     0.000000000
 C        1.865919695     0.000000000     0.000000000
 C       -0.678324155     1.710778007     0.000000000
 C        0.161254193     2.826294109    -0.078597119
 C       -0.369832460     4.116267619    -0.077394652
 C       -1.749219517     4.319631846     0.006914961
 C       -2.589580015     3.200579156     0.084182831
 C       -2.063007570     1.912236950     0.077230416
 C       -2.351993465     5.647055988     0.011805552
 C       -1.673837083     6.804860536    -0.062091750
 C       -2.303798163     8.121150252    -0.055148811
 C       -3.690913688     8.280423520     0.030800003
 C       -4.262323104     9.550172021     0.035142155
 C       -3.458857075    10.694454216    -0.037743899
 C       -2.070671631    10.538917592    -0.121061766
 C       -1.501677883     9.266287542    -0.131057789
Si       -4.258426039    12.350646348    -0.028919924
 C       -3.043039062    13.686884150     0.268687166
 C       -3.198187572    14.650924767     1.185599412
 C       -2.239618267    15.727818299     1.439685819
 C       -2.546926046    16.665806655     2.438205552
 C       -1.683749260    17.708290553     2.728240170
 C       -0.489754355    17.861995595     1.994518573
 C       -0.179249840    16.927450800     0.995673358
 C       -1.040970778    15.866002682     0.737071631
 N        0.352199805    18.950951177     2.340939586
 C       -0.308648736    20.278928970     2.283938070
 C        1.693201949    18.938455073     1.734947350
 C       -1.385292582    20.427243322     1.190466079
 C       -1.239659336    21.673290282     0.301391326
 N       -0.068508922    21.708224239    -0.599841995
 C        0.278125286    20.509294127    -1.248607601
 C       -0.740754963    19.667726878    -1.747722462
 C       -0.421062066    18.483047447    -2.389567316
 C        0.915105237    18.114716819    -2.605818113
 C        1.920584519    18.970102180    -2.150721982
 C        1.617623634    20.158807022    -1.498792081
 C        1.040730933    22.527424816    -0.084191683
 C        1.209620467    16.853334603    -3.288600366
 C        2.454876023    16.425743951    -3.535514554
Si        2.921939014    14.874840582    -4.376430284
 C        1.724559893    13.499875665    -4.149720419
 C        0.784997031    13.506245658    -3.112244085
 C       -0.110553922    12.449456520    -2.965189272
 C       -0.077139876    11.354782094    -3.837762704
 C        0.869816918    11.346626817    -4.866316397
 C        1.762417506    12.405010303    -5.021187770
 C       -1.031450566    10.267676024    -3.651224588
 C       -1.096703130     9.174230900    -4.429330023
 C       -2.045535801     8.081409654    -4.253140482
 C       -2.997784082     8.071622519    -3.232798533
 C       -3.887972106     7.006896356    -3.098112382
 C       -3.824213821     5.913967403    -3.966977733
 C       -2.863989213     5.916987590    -4.987842398
 C       -1.990430421     6.990920111    -5.131569214
Si       -4.995716091     4.505992670    -3.794709095
 C       -5.685015949     4.422934564    -2.062017010
 C       -6.425320965     4.723837458    -5.030102261
 C       -4.075294297     2.891805655    -4.212334140
 C        3.123630543    15.231343287    -6.234918228
 C        4.602365400    14.334231083    -3.662338155
 C       -5.022484300    12.615541759    -1.754830438
 C       -5.642235621    12.445363718     1.275033133
 C       -0.672259714    -0.866278290    -1.555645080
 C       -0.577863077    -0.954317604     1.542862901
 H        1.248385134     2.729799827    -0.143127137
 H        0.304189802     4.968464910    -0.145100752
 H       -3.667535895     3.335862541     0.153350195
 H       -2.768416554     1.078215260     0.130647984
 H       -3.444534263     5.648545451     0.079850262
 H       -0.583688847     6.814102328    -0.140886394
 H       -4.337739906     7.407689824     0.101307226
 H       -5.353221528     9.607546002     0.097613138
 H       -1.392153004    11.396059368    -0.163645153
 H       -0.419559642     9.164644857    -0.200033697
 H       -2.156682676    13.659456882    -0.384332508
 H       -4.075446917    14.704683541     1.845517172
 H       -3.473495052    16.568780782     3.003631483
 H       -1.919503717    18.411466757     3.522876084
 H        0.725911947    17.029224513     0.401127773
 H       -0.775847805    15.146416751    -0.038822869
 H        2.306850595    19.726791784     2.201229585
 H        1.696196149    19.088080867     0.642692365
 H        2.183259414    17.973888208     1.960331610
 H        0.645639903    23.460903299     0.350820978
 H        1.690928314    22.825471105    -0.928054090
 H        1.655678701    22.018894467     0.675520742
 H       -1.783719555    19.951536730    -1.632373024
 H       -1.224668454    17.834848850    -2.743978055
 H        2.969093107    18.714779063    -2.314120971
 H        2.431680795    20.799925818    -1.177777037
 H        0.312830102    16.291537898    -3.580369136
 H        3.326800267    17.033217411    -3.239202717
 H        0.725036341    14.328413315    -2.391493546
 H       -0.843682349    12.475226094    -2.160137775
 H        0.918221863    10.508149531    -5.558383700
 H        2.477477093    12.341086567    -5.846267296
 H       -1.707813045    10.387725567    -2.797209909
 H       -0.411989487     9.050432917    -5.273641763
 H       -3.058296651     8.904655292    -2.530231797
 H       -4.617296583     7.063718529    -2.285272239
 H       -2.769211876     5.090112952    -5.696626297
 H       -1.254372185     6.978331257    -5.932460523
 H       -0.770155377    20.436372714     3.287444053
 H        0.464609029    21.067626484     2.179582739
 H       -1.403013085    19.519100511     0.550181038
 H       -2.387631036    20.443303172     1.661566255
 H       -2.142434160    21.755252933    -0.354293299
 H       -1.240954393    22.588915766     0.932287604
 H        2.263987659    -1.030249882     0.004761090
 H        2.270775675     0.517802061     0.887518637
 H        2.266647989     0.504360517    -0.897643189
 H       -6.346485730     3.547985040    -1.937619848
 H       -6.270943222     5.323573790    -1.810696669
 H       -4.865725103     4.332053326    -1.325025881
 H       -7.108316138     3.840279327    -4.872899552
 C       -7.237185701     6.006989439    -4.772150720
 C       -5.968529466     4.717632335    -6.500219788
 H       -3.873245422     2.932021230    -5.322032157
 C       -2.721731640     2.771821310    -3.492000316
 C       -4.900801826     1.623594337    -3.928609765
 H        3.543669624    14.288974972    -6.691052614
 C        1.777163096    15.532765117    -6.916635955
 C        4.104012730    16.380217699    -6.529748057
 H        5.310214537    15.192855101    -3.846649569
 C        4.530457529    14.089363587    -2.144099850
 C        5.183120151    13.083352565    -4.343433711
 H       -5.810652398    11.815104999    -1.864097885
 C       -5.704485092    13.987496767    -1.896912089
 C       -4.009891936    12.440181166    -2.898992384
 H       -5.890099971    13.544269108     1.365547602
 C       -6.945431189    11.716698262     0.902556120
 C       -5.171198885    11.946793147     2.653273835
 H       -1.796886174    -0.798683991    -1.480417179
 C       -0.243899577    -0.159478700    -2.854586782
 C       -0.290783944    -2.354215053    -1.647167935
 H        0.005493810    -1.920831261     1.527982252
 C       -0.239007201    -0.212654599     2.849219921
 C       -2.074979899    -1.310652555     1.554725237
 H       -7.677442540     6.049607516    -3.767912792
 H       -8.077123296     6.069909813    -5.478415605
 H       -6.644973150     6.922432456    -4.916641978
 H       -5.468735152     3.787004008    -6.797104829
 H       -5.295374883     5.552946020    -6.741274936
 H       -6.838008669     4.823204577    -7.164895452
 H       -2.051079109     3.624692231    -3.668817120
 H       -2.185552595     1.878657414    -3.842200952
 H       -2.821275883     2.664158024    -2.401489820
 H       -5.863828552     1.603325479    -4.453222851
 H       -5.097999894     1.474626497    -2.858568798
 H       -4.347995158     0.734631808    -4.265676366
 H        1.042732484    14.722470551    -6.806153777
 H        1.923004445    15.670152006    -7.997318460
 H        1.308081836    16.456580418    -6.548519079
 H        5.112303499    16.205931174    -6.133558099
 H        3.754294833    17.348624419    -6.144803839
 H        4.218774435    16.505902781    -7.616156588
 H        4.172323952    14.959586544    -1.576780040
 H        5.530048836    13.854552921    -1.752087169
 H        3.889334051    13.235909201    -1.879781828
 H        5.345704569    13.209616963    -5.421322817
 H        4.559018739    12.189550865    -4.199964180
 H        6.165193897    12.841841131    -3.911374212
 H       -6.496137792    14.163171222    -1.157742048
 H       -6.183614112    14.069083884    -2.883131621
 H       -4.995582423    14.825397202    -1.829446426
 H       -3.548924000    11.442312811    -2.920162679
 H       -3.203057547    13.185379334    -2.883966635
 H       -4.513707636    12.556243935    -3.869805768
 H       -7.370722166    12.044606668    -0.054597143
 H       -7.714691885    11.916426932     1.663119582
 H       -6.834852935    10.625064554     0.864507770
 H       -4.281119945    12.471525031     3.028719101
 H       -4.943005861    10.871305082     2.663153683
 H       -5.959749432    12.101675388     3.402879722
 H       -0.505043097     0.909026972    -2.874070721
 H       -0.750202196    -0.616507166    -3.716510129
 H        0.833520579    -0.239647374    -3.050226133
 H       -0.629884416    -2.944545256    -0.786204882
 H        0.790266101    -2.513391693    -1.754877991
 H       -0.757514829    -2.807518019    -2.533735154
 H        0.831579177     0.000739833     2.965494453
 H       -0.526242202    -0.824701294     3.716034724
 H       -0.778898784     0.739793928     2.951773408
 H       -2.402464462    -1.858847971     0.662469237
 H       -2.721483456    -0.429697150     1.667102123
 H       -2.296909854    -1.961984090     2.412778619

