187   

Si        0.000000000     0.000000000     0.000000000
 C        1.865204178     0.000000000     0.000000000
 C       -0.687994746     1.707010581     0.000000000
 C        0.131018423     2.821676002    -0.204362654
 C       -0.407901171     4.108493570    -0.201094876
 C       -1.775947886     4.309438337    -0.000855406
 C       -2.595935513     3.190831599     0.201504485
 C       -2.060514858     1.906116540     0.203283139
 C       -2.385820062     5.634766317     0.011038955
 C       -1.719902972     6.788720649    -0.164805566
 C       -2.337701706     8.110777001    -0.151473265
 C       -1.528525741     9.237211254    -0.347880857
 C       -2.075932432    10.518142787    -0.342924246
 C       -3.446761809    10.703347173    -0.128937685
 C       -4.257147632     9.578863370     0.067722331
 C       -3.708240500     8.297990747     0.050646899
Si       -4.203056877    12.380780705    -0.115934343
 C       -5.624920678    12.477113679     1.028670206
 C       -5.743740396    11.744285658     2.144381875
 C       -6.880569782    11.819351189     3.062225984
 C       -6.887669920    10.998125493     4.199290014
 C       -7.938506362    11.029291022     5.100330709
 C       -9.059928521    11.855838170     4.862686877
 C       -9.055191050    12.677883873     3.718299167
 C       -7.970248460    12.668461819     2.851797472
 N      -10.114217078    11.876260148     5.783083314
 C      -10.434680355    10.631159785     6.498347614
 C      -11.274369354    12.722045543     5.475871281
 C      -10.643699281     9.388758611     5.612545856
 C      -12.002686321     9.336463444     4.892576033
 N      -13.194804180     9.174438305     5.749250106
 C      -13.735812284    10.383198320     6.256912654
 C      -14.228213441    11.311741975     5.317315804
 C      -14.770177668    12.512593699     5.743837891
 C      -14.869428917    12.814054693     7.111266121
 C      -14.407141183    11.877446923     8.038284404
 C      -13.858100587    10.668019645     7.624614301
 C      -13.088701047     8.062359639     6.705560494
 C      -15.451033467    14.098748566     7.505891478
 C      -15.599028276    14.499602308     8.775543780
Si      -16.326359786    16.105841824     9.263551840
 C      -17.572696177    16.691739822     8.044862406
 C      -18.365583220    15.759704748     7.362093680
 C      -19.314252957    16.184456507     6.435972336
 C      -19.504466398    17.548690096     6.178505097
 C      -18.718531976    18.476200585     6.867920038
 C      -17.764381955    18.053869188     7.793204375
 C      -20.511118113    17.943568527     5.198913027
 C      -20.790532164    19.212546865     4.856280058
 C      -21.797734957    19.605458983     3.876284870
 C      -22.582484189    18.676715426     3.188070123
 C      -23.534385873    19.096422403     2.258931413
 C      -23.726785435    20.457591816     2.002935695
 C      -22.941392076    21.391317449     2.692743347
 C      -21.988142738    20.969048706     3.615110075
Si      -24.978875767    21.027880496     0.779813040
 C      -26.131805354    19.647942064     0.284190930
 C      -25.963286138    22.459162858     1.558434042
 C      -24.096785490    21.675964722    -0.777476216
 C      -17.172970294    15.896985774    10.953364690
 C      -14.920789751    17.376641755     9.432919057
 C       -2.911072296    13.680324868     0.395996094
 C       -4.815648581    12.786767497    -1.870654753
 C       -0.599950489    -0.929704936    -1.549541976
 C       -0.658712021    -0.900858344     1.542207496
 H        1.208024934     2.726995344    -0.367913718
 H        0.251585033     4.959905299    -0.358963865
 H       -3.664269964     3.325290861     0.360000574
 H       -2.749031622     1.072774072     0.369935040
 H       -3.467132616     5.637538317     0.178567735
 H       -0.639230037     6.788720047    -0.332846624
 H       -0.459437788     9.113517040    -0.508481959
 H       -1.396178754    11.358449713    -0.507409714
 H       -5.336241530     9.663685116     0.237082499
 H       -4.360424526     7.439712572     0.201111066
 H       -6.393713608    13.210705475     0.743403246
 H       -4.984808741    11.012321504     2.456697073
 H       -6.043764518    10.332885757     4.388066392
 H       -7.893974212    10.415171938     5.994472428
 H       -9.894634164    13.329617583     3.500459362
 H       -7.984393956    13.326613786     1.981753908
 H      -12.004508337    12.683730834     6.305820017
 H      -11.799208873    12.433534174     4.550632141
 H      -10.945264344    13.774283476     5.391094536
 H      -12.807825196     7.146007091     6.157450706
 H      -14.081128335     7.880051435     7.156029498
 H      -12.359253377     8.222384687     7.514707437
 H      -14.189487837    11.072056827     4.256352520
 H      -15.140077329    13.225772257     5.005721369
 H      -14.477701017    12.087495326     9.106261903
 H      -13.512981466     9.958984893     8.370984411
 H      -15.768707243    14.710477786     6.649227485
 H      -15.265745351    13.872531832     9.616390797
 H      -18.265299254    14.681422376     7.526816341
 H      -19.916218839    15.445686054     5.910006103
 H      -18.847017096    19.541791057     6.687492420
 H      -17.180860188    18.826115922     8.301830599
 H      -21.051063585    17.111318892     4.737566457
 H      -20.251456771    20.045340534     5.317342423
 H      -22.455854994    17.611396390     3.372326075
 H      -24.117121539    18.322857472     1.751192344
 H      -23.048387962    22.468200858     2.534343013
 H      -21.386852269    21.709138485     4.139810236
 H       -9.598972796    10.437117431     7.213756051
 H      -11.334295353    10.804283427     7.132442521
 H       -9.842170532     9.340649057     4.844798489
 H      -10.506690457     8.480548447     6.228592457
 H      -12.125474298    10.247185268     4.264766934
 H      -12.005974354     8.472036003     4.185297945
 H        2.262820863    -1.030134461     0.032572579
 H        2.262565226     0.536516178     0.880715303
 H        2.273741898     0.485787489    -0.903528305
 H      -26.904956738    20.007867453    -0.418023839
 H      -26.652825354    19.230943217     1.165160279
 H      -25.592336433    18.821605374    -0.211004953
 H      -25.207894844    23.266833850     1.785205391
 C      -27.024434018    23.057244873     0.617834176
 C      -26.636163869    22.058642299     2.883769072
 H      -24.918527123    21.949848080    -1.500727760
 C      -23.244395338    22.932894946    -0.527330928
 C      -23.212829501    20.605275625    -1.443075580
 H      -16.369238338    15.551913029    11.665961490
 C      -17.764439252    17.208705514    11.497915890
 C      -18.276984859    14.824838232    10.922741229
 H      -15.403382039    18.332311868     9.788914333
 C      -13.856760089    16.968735413    10.467485567
 C      -14.226190465    17.660192921     8.088905552
 H       -2.084615439    13.619687262    -0.369387901
 C       -3.461439974    15.117750618     0.386340015
 C       -2.306211209    13.386889767     1.780618776
 H       -5.256723048    13.823623068    -1.815293269
 C       -3.687659730    12.801732746    -2.916897122
 C       -5.920056381    11.822456084    -2.339593561
 H       -0.080437632    -1.931128273    -1.521565824
 C       -2.117781452    -1.183091022    -1.575244321
 C       -0.197350421    -0.219035934    -2.854813476
 H       -1.783484822    -0.894983614     1.445817771
 C       -0.201562196    -2.367168407     1.639596477
 C       -0.294714864    -0.173740506     2.849385274
 H      -26.607404989    23.432954681    -0.325483335
 H      -27.512948278    23.915959747     1.101110896
 H      -27.825899831    22.348583941     0.370528435
 H      -25.927979958    21.671022891     3.630170259
 H      -27.425080807    21.305907469     2.754579207
 H      -27.116682113    22.934462607     3.342723891
 H      -23.819615840    23.777327813    -0.127096119
 H      -22.805425647    23.282649143    -1.473232727
 H      -22.399521204    22.747381344     0.150771132
 H      -23.763897559    19.700319584    -1.729516945
 H      -22.369019905    20.294505795    -0.810272923
 H      -22.772744036    21.002391272    -2.369108454
 H      -17.016459103    17.999517994    11.638126237
 H      -18.216676911    17.036157525    12.485432371
 H      -18.565122082    17.613985432    10.862505583
 H      -17.919540163    13.838346774    10.597682933
 H      -19.122835775    15.100986657    10.276489541
 H      -18.694597446    14.684690354    11.929951616
 H      -14.262888851    16.820238245    11.476091623
 H      -13.097944079    17.759819224    10.557016138
 H      -13.314246394    16.055405329    10.185601524
 H      -14.913091294    18.014336821     7.307754952
 H      -13.695482627    16.783796082     7.689064038
 H      -13.469958428    18.448136440     8.213482425
 H       -3.840715093    15.432841558    -0.593953231
 H       -2.663287885    15.827198230     0.648490806
 H       -4.262885862    15.273038043     1.122444602
 H       -1.838238950    12.395309956     1.852139758
 H       -3.044291952    13.462006467     2.592763398
 H       -1.518169872    14.117155295     2.011673034
 H       -2.902146655    13.536937329    -2.700441639
 H       -4.093110744    13.067800650    -3.903787340
 H       -3.204494417    11.821735546    -3.039377330
 H       -6.791685573    11.799542469    -1.671273157
 H       -5.563477988    10.788796192    -2.455482891
 H       -6.295444056    12.129650987    -3.325883994
 H       -2.480361655    -1.751029944    -0.709258274
 H       -2.383752839    -1.775660009    -2.462843888
 H       -2.703784261    -0.255711891    -1.641441462
 H        0.885509754    -0.070735439    -2.955593190
 H       -0.679435907     0.762199868    -2.972730123
 H       -0.506844985    -0.819856990    -3.721955894
 H       -0.486659739    -2.970557914     0.768118043
 H       -0.667564941    -2.848342165     2.511816478
 H        0.883149090    -2.469260315     1.776535351
 H       -0.642023517     0.869086447     2.876611855
 H        0.784466815    -0.168442517     3.051851900
 H       -0.767568658    -0.676779149     3.704860024

