187   

Si        0.000000000     0.000000000     0.000000000
 C        1.866460176     0.000000000     0.000000000
 C       -0.657634426     1.719130559     0.000000000
 C        0.110405170     2.791373329     0.465590902
 C       -0.403302147     4.088628763     0.458692651
 C       -1.702323473     4.336921500     0.009889584
 C       -2.475194999     3.260090643    -0.445334568
 C       -1.960974507     1.967426244    -0.451238925
 C       -2.291998557     5.669668758    -0.020271527
 C       -1.681034475     6.801761133     0.368481997
 C       -2.307103843     8.119815177     0.322666952
 C       -1.581188367     9.237159823     0.752163104
 C       -2.147560223    10.510758146     0.722271992
 C       -3.437167216    10.701902642     0.215358688
 C       -4.167831605     9.584764518    -0.210480118
 C       -3.618001856     8.307915824    -0.129584380
Si       -4.255852569    12.348435773     0.140649774
 C       -4.917210753    12.608352449    -1.550261611
 C       -4.363926978    12.077827319    -2.650764455
 C       -4.865827842    12.265239379    -4.013012769
 C       -4.194414930    11.654522979    -5.082745815
 C       -4.632251689    11.803180632    -6.390267983
 C       -5.740840541    12.624425736    -6.681898056
 C       -6.414167679    13.242869066    -5.606924029
 C       -5.990791752    13.043417668    -4.300532143
 N       -6.213473402    12.799999655    -7.990842392
 C       -5.402860431    12.344838327    -9.127118754
 C       -6.965711706    14.035759373    -8.266007102
 C       -4.184865914    13.234605367    -9.431074144
 C       -3.548670838    12.909073999   -10.795527004
 N       -3.044372688    11.526964235   -10.966762572
 C       -2.410050098    11.001876617    -9.809689689
 C       -1.286142596    11.694368395    -9.316597133
 C       -0.625143993    11.231092137    -8.191355416
 C       -1.026022360    10.045421894    -7.556891826
 C       -2.123124749     9.349147668    -8.067717198
 C       -2.811508585     9.814052600    -9.183373745
 C       -4.003937206    10.635158337   -11.638861066
 C       -0.294158257     9.598355083    -6.370164408
 C       -0.594457781     8.483953928    -5.691770182
Si        0.275174549     7.870021870    -4.207386062
 C        0.798778711     6.114015085    -4.223614397
 C        0.879382971     5.349422465    -5.389479872
 C        1.286224661     4.014911002    -5.331689984
 C        1.613889553     3.419827705    -4.111104086
 C        1.527825618     4.188059444    -2.941806299
 C        1.123950072     5.517365999    -2.995622582
 C        2.044509578     2.031763947    -3.990110992
 C        2.177205028     1.168731097    -5.011323141
 C        2.610346904    -0.217411594    -4.865183441
 C        2.930990747    -0.778313390    -3.625742362
 C        3.341195251    -2.106818629    -3.525680868
 C        3.428407638    -2.910797248    -4.666770471
 C        3.098389357    -2.354867052    -5.909560749
 C        2.691314317    -1.026654591    -6.005644633
Si        3.970322977    -4.664964199    -4.532569342
 C        5.060065955    -4.921600952    -3.040553607
 C        2.425434499    -5.767356453    -4.383213499
 C        4.901718140    -5.157794635    -6.117370399
 C        1.767410934     8.970455957    -3.787149367
 C       -1.059495277     8.097146191    -2.868750547
 C       -5.670897578    12.440227921     1.404271268
 C       -3.006187526    13.732591137     0.522767245
 C       -0.672941839    -0.922751386    -1.526676753
 C       -0.621914884    -0.914572466     1.548227735
 H        1.129855430     2.654628068     0.835575117
 H        0.217171031     4.908789990     0.814065898
 H       -3.488500104     3.433842114    -0.802832382
 H       -2.609503387     1.167762085    -0.820981700
 H       -3.319699030     5.698451525    -0.398115370
 H       -0.656647054     6.786411973     0.747390593
 H       -0.565265601     9.112959829     1.121178864
 H       -1.543416984    11.341471194     1.096056382
 H       -5.182025136     9.672894443    -0.616109495
 H       -4.222271242     7.453341551    -0.430308754
 H       -5.804532506    13.253611221    -1.607715641
 H       -3.471943134    11.434293814    -2.610673315
 H       -3.312875213    11.038870898    -4.888665522
 H       -4.091520227    11.295538602    -7.186583835
 H       -7.283930700    13.865345064    -5.786773730
 H       -6.543297159    13.518198504    -3.488912789
 H       -7.130560678    14.161583213    -9.347930483
 H       -6.461253726    14.940181327    -7.886992304
 H       -7.963372330    13.961233565    -7.794575686
 H       -4.272262536    11.074012646   -12.615677304
 H       -4.929728477    10.444505832   -11.075672338
 H       -3.512299518     9.668128985   -11.850230419
 H       -0.946233353    12.595349904    -9.821104775
 H        0.227390387    11.789358444    -7.804433197
 H       -2.456317368     8.426726421    -7.589227476
 H       -3.664905237     9.251372544    -9.549195925
 H        0.534570177    10.261915231    -6.094442043
 H       -1.436742910     7.841040081    -6.000226749
 H        0.632610961     5.764729808    -6.370231733
 H        1.343939402     3.437718620    -6.252108435
 H        1.761716796     3.737550482    -1.978001942
 H        1.063391382     6.061576309    -2.047632619
 H        2.266289895     1.716381622    -2.964629795
 H        1.958348883     1.478116996    -6.036462821
 H        2.875949840    -0.173429732    -2.721147193
 H        3.589642787    -2.483745172    -2.529646706
 H        3.145645582    -2.935480199    -6.834773653
 H        2.438324454    -0.614091235    -6.980435739
 H       -5.074656874    11.296524464    -8.929865893
 H       -6.071930145    12.291345370   -10.017070715
 H       -4.477505667    14.300856027    -9.413801517
 H       -3.434200265    13.126586167    -8.621369552
 H       -4.265360848    13.137089385   -11.613291560
 H       -2.673901142    13.584802202   -10.956609111
 H        2.264216176    -1.020193268    -0.146615612
 H        2.272499674     0.381249785     0.953038341
 H        2.263376543     0.638211377    -0.809951873
 H        5.421652536    -5.963901988    -2.986962113
 H        4.527237205    -4.705316692    -2.098382153
 H        5.947463814    -4.263857212    -3.083633437
 H        2.806027418    -6.828829280    -4.354840040
 C        1.631881321    -5.511302670    -3.089148885
 C        1.470530698    -5.632441872    -5.583001161
 H        4.165129382    -5.030671470    -6.963281991
 C        6.108954451    -4.245447115    -6.400691224
 C        5.371566099    -6.623658977    -6.122278529
 H        1.397129387    10.034167233    -3.866402052
 C        2.302096951     8.765275194    -2.358367506
 C        2.925691709     8.789674198    -4.784507664
 H       -0.620771870     7.751040342    -1.889615873
 C       -1.469867759     9.571447181    -2.724035614
 C       -2.303644454     7.241730261    -3.166800250
 H       -6.101591589    13.479165758     1.305934946
 C       -6.800060147    11.433022606     1.122355586
 C       -5.191338841    12.256901326     2.855258125
 H       -2.548524204    13.473466943     1.520596210
 C       -1.877792850    13.806264983    -0.522627321
 C       -3.655583411    15.122746816     0.646508982
 H       -1.767253836    -1.098761328    -1.311457265
 C       -0.578177978    -0.112213109    -2.829931538
 C       -0.010685866    -2.293821007    -1.753517596
 H       -0.191590105    -1.955514974     1.484899348
 C       -0.126290106    -0.272211889     2.856989289
 C       -2.155230615    -1.035901493     1.611628463
 H        2.220960326    -5.675839793    -2.177871049
 H        0.777136643    -6.200312103    -3.029855998
 H        1.212467837    -4.495791979    -3.039394357
 H        1.935466141    -5.894252386    -6.541875284
 H        1.047317577    -4.622204165    -5.680376101
 H        0.615528108    -6.313161205    -5.461911814
 H        5.844888437    -3.179896371    -6.460436170
 H        6.559298580    -4.505261228    -7.369314874
 H        6.906650742    -4.345599952    -5.652521779
 H        4.552477562    -7.343747394    -5.998970131
 H        6.122743339    -6.835607243    -5.349902259
 H        5.846265470    -6.861711070    -7.085440102
 H        1.544442683     8.935586857    -1.582135168
 H        3.114517793     9.477767198    -2.156443855
 H        2.728593471     7.764701223    -2.201888659
 H        2.637731027     8.971166299    -5.828986871
 H        3.375461008     7.787386954    -4.737979399
 H        3.733671387     9.499505988    -4.558933355
 H       -0.651427084    10.220363788    -2.387856347
 H       -2.259433984     9.660699606    -1.960556584
 H       -1.882256395     9.999208170    -3.648381034
 H       -2.080908079     6.169683167    -3.261718171
 H       -2.842440465     7.559087410    -4.069283159
 H       -3.021989157     7.329865946    -2.338741306
 H       -7.210782929    11.509001325     0.106360852
 H       -7.640904678    11.609247655     1.808274703
 H       -6.489890902    10.390554626     1.281333228
 H       -4.445546499    12.999869109     3.165929614
 H       -4.766736454    11.260314379     3.043000373
 H       -6.038471641    12.363817240     3.548122958
 H       -1.326036879    12.864373165    -0.643842222
 H       -1.137516162    14.562232753    -0.226421624
 H       -2.241013370    14.102744850    -1.518205531
 H       -4.412544252    15.181414004     1.438852369
 H       -4.121400166    15.461689169    -0.289255156
 H       -2.891869495    15.872965355     0.897704937
 H       -1.034527313     0.885036468    -2.768267403
 H       -1.098264099    -0.639491553    -3.642109877
 H        0.456762145     0.025462435    -3.175153362
 H       -0.051814484    -2.954904573    -0.880044312
 H        1.040908500    -2.208405800    -2.066490721
 H       -0.525004318    -2.824404287    -2.568588992
 H        0.967299108    -0.227827221     2.934882516
 H       -0.470801583    -0.860878513     3.719445131
 H       -0.513924399     0.745667086     3.006327087
 H       -2.585451680    -1.579544780     0.760954725
 H       -2.658664880    -0.060860570     1.677408962
 H       -2.451391482    -1.594539228     2.511388645

