187   

Si        0.000000000     0.000000000     0.000000000
 C        1.865369981     0.000000000     0.000000000
 C       -0.677043878     1.711883564     0.000000000
 C        0.134615915     2.808880095     0.305650542
 C       -0.389042571     4.101625667     0.302611947
 C       -1.734620984     4.326827980     0.001099107
 C       -2.547723601     3.226117971    -0.300865355
 C       -2.027580748     1.934874162    -0.300923199
 C       -2.325566367     5.660870411    -0.014168134
 C       -1.658544884     6.796396326     0.253586080
 C       -2.249895546     8.130244472     0.238203165
 C       -1.436905336     9.231181535     0.537702036
 C       -1.957068840    10.523187010     0.535431868
 C       -3.302561608    10.745798458     0.219378159
 C       -4.116387200     9.647413363    -0.081369057
 C       -3.595613468     8.354544345    -0.066281860
Si       -4.015854234    12.441312157     0.208688568
 C       -5.339299679    12.619723853    -1.040228747
 C       -5.387515051    11.932567655    -2.189542924
 C       -6.446604462    12.075068267    -3.189426526
 C       -6.385918239    11.297969629    -4.355735420
 C       -7.361986847    11.394120026    -5.333220796
 C       -8.420690346    12.319360660    -5.197698136
 C       -8.481955789    13.100334322    -4.028244458
 C       -7.519063733    12.956928221    -3.036727649
 N       -9.401044445    12.402083281    -6.199648474
 C       -8.973648965    12.179948821    -7.592602992
 C      -10.440910125    13.428691735    -6.042463987
 C       -7.800461293    13.051528831    -8.071510232
 C       -8.187651200    14.500132033    -8.413442112
 N       -8.853160067    14.687704950    -9.714774757
 C       -8.204377973    14.189713566   -10.855984454
 C       -6.793240185    14.200828172   -10.918110689
 C       -6.136939847    13.713599593   -12.035979589
 C       -6.848933645    13.247213528   -13.150855069
 C       -8.244799214    13.265974188   -13.099746867
 C       -8.920055621    13.732388732   -11.978705217
 C      -10.317505842    14.571376141    -9.667453565
 C       -6.104060594    12.743079841   -14.305309199
 C       -6.674561395    12.273437678   -15.423069451
Si       -5.746162215    11.643171742   -16.866458354
 C       -4.134436273    10.900290748   -16.382034655
 C       -4.007451785    10.261603738   -15.141306326
 C       -2.794507737     9.694539102   -14.760176912
 C       -1.683377175     9.738187864   -15.612771341
 C       -1.815658616    10.367510418   -16.853560436
 C       -3.027984426    10.940607038   -17.236418555
 C       -0.433934663     9.129683116   -15.168151615
 C        0.703318442     9.105905497   -15.883611982
 C        1.952279952     8.497021946   -15.437867931
 C        2.083701839     7.868023056   -14.197184052
 C        3.297034410     7.298660443   -13.810964941
 C        4.405441778     7.340824230   -14.662438259
 C        4.276056058     7.970300604   -15.907968823
 C        3.065309766     8.542352464   -16.288269368
Si        6.013603666     6.594015690   -14.167309546
 C        5.829690327     5.502098127   -12.666167919
 C        6.679967480     5.585089251   -15.637455945
 C        7.258443670     7.977612617   -13.767674009
 C       -6.800507054    10.309069802   -17.719483356
 C       -5.465835091    13.073450218   -18.089508997
 C       -4.757663240    12.801406305     1.923057048
 C       -2.657580462    13.724255235    -0.151119236
 C       -0.655327821    -0.903443225    -1.542196384
 C       -0.615462485    -0.922540766     1.546863369
 H        1.194445445     2.695765546     0.549988446
 H        0.264919199     4.938669553     0.540303683
 H       -3.598793552     3.379433895    -0.538340827
 H       -2.709927955     1.115856764    -0.545224061
 H       -3.389743658     5.686887302    -0.266724279
 H       -0.594593944     6.770373917     0.506406728
 H       -0.386674900     9.078249671     0.778140569
 H       -1.276066551    11.341675091     0.783777535
 H       -5.176399410     9.762262807    -0.333173241
 H       -4.250013128     7.516435408    -0.299049583
 H       -6.109950052    13.363195019    -0.786987002
 H       -4.625500757    11.191256544    -2.470443962
 H       -5.562937733    10.594367989    -4.491959956
 H       -7.308031572    10.750189200    -6.206601333
 H       -9.280402437    13.819057486    -3.879745273
 H       -7.599890092    13.562048587    -2.132461208
 H      -11.162554974    13.365108475    -6.873811837
 H      -10.047144111    14.457250736    -5.996414372
 H      -11.008279215    13.226537764    -5.114076408
 H      -10.702516015    15.016230143    -8.734873381
 H      -10.682884229    13.533886996    -9.739160291
 H      -10.751624681    15.156368246   -10.500583908
 H       -6.212619244    14.590714864   -10.086633367
 H       -5.045781728    13.709207617   -12.053238181
 H       -8.823871513    12.909639269   -13.952995352
 H      -10.004518907    13.725380216   -11.982738827
 H       -5.013978239    12.780298241   -14.165709799
 H       -7.768480519    12.258185415   -15.541879733
 H       -4.843695028    10.191603742   -14.437324262
 H       -2.712585434     9.209144226   -13.789475047
 H       -0.968459177    10.414478369   -17.535063906
 H       -3.069982385    11.418165291   -18.219084736
 H       -0.475938977     8.672704189   -14.175005460
 H        0.745836622     9.562238558   -16.876856911
 H        1.234780732     7.817822976   -13.517723857
 H        3.338651807     6.821035636   -12.828111985
 H        5.107997911     8.032725866   -16.615143773
 H        2.984491094     9.027640231   -17.259051580
 H       -8.694674499    11.101626644    -7.683798429
 H       -9.851145566    12.311700601    -8.262567483
 H       -7.004942618    13.065331217    -7.297582886
 H       -7.333521492    12.570714487    -8.956101435
 H       -8.834283669    14.925833614    -7.615294613
 H       -7.269666620    15.137673536    -8.417155948
 H        2.263344641    -1.029407752    -0.047250668
 H        2.275274987     0.473342766     0.909335226
 H        2.260853920     0.548940901    -0.873945228
 H        6.789273307     5.022316774   -12.402876283
 H        5.095817135     4.696422498   -12.849807967
 H        5.490344633     6.072768333   -11.783951344
 H        6.810044893     6.320855739   -16.483735997
 C        8.047384190     4.933176690   -15.365815771
 C        5.691529976     4.501275485   -16.104436794
 H        8.191849464     7.453656866   -13.410770262
 C        7.633240475     8.842167323   -14.984640676
 C        6.768316989     8.902372734   -12.638285876
 H       -7.767197578    10.813138184   -18.009305315
 C       -6.150733674     9.749894543   -18.997067287
 C       -7.135352587     9.139906651   -16.775814255
 H       -4.947366441    12.623102796   -18.984589225
 C       -6.774791952    13.720653846   -18.575955030
 C       -4.553738375    14.168158929   -17.507378148
 H       -5.168047343    13.850911584     1.871598880
 C       -5.918600415    11.850606270     2.266057325
 C       -3.717171437    12.749142948     3.055219374
 H       -1.897534816    13.616657822     0.675646264
 C       -1.948485203    13.462895917    -1.492017746
 C       -3.174013252    15.174154022    -0.134199262
 H       -1.780056359    -0.905140317    -1.445132171
 C       -0.297199918    -0.173553421    -2.849432902
 C       -0.189332411    -2.366909481    -1.640915663
 H       -0.123643479    -1.937493720     1.512540121
 C       -0.191023450    -0.230131175     2.854995906
 C       -2.140012445    -1.132685930     1.572736684
 H        8.827129253     5.655665282   -15.092074499
 H        8.406021890     4.422752549   -16.271537270
 H        8.008424313     4.168654161   -14.578571815
 H        4.702544573     4.901428448   -16.370295868
 H        5.538212900     3.709828916   -15.358892819
 H        6.074579937     4.005354796   -17.007668238
 H        8.066021356     8.266442672   -15.812443357
 H        8.392898417     9.584073288   -14.697868127
 H        6.781793388     9.414204886   -15.379483468
 H        6.556777236     8.372192153   -11.700790970
 H        5.865939639     9.468389646   -12.911119058
 H        7.539656353     9.649186441   -12.401254065
 H       -5.966225120    10.514048928   -19.762814110
 H       -6.813138076     9.004797262   -19.460969288
 H       -5.199469778     9.233748546   -18.802901467
 H       -7.655992442     9.453065051   -15.860609917
 H       -6.246477021     8.567856725   -16.472736459
 H       -7.801485388     8.426314243   -17.280913644
 H       -7.450640678    13.015478711   -19.075930866
 H       -6.553573304    14.506981144   -19.312105047
 H       -7.336580623    14.208205558   -17.766758540
 H       -3.571695041    13.793949783   -17.186205720
 H       -5.004947106    14.687719139   -16.649370697
 H       -4.356760140    14.938767828   -18.265746079
 H       -6.732603915    11.871501054     1.528617861
 H       -6.367056065    12.134563680     3.228563743
 H       -5.596146577    10.804882422     2.374568332
 H       -2.900098022    13.471016195     2.930247878
 H       -3.268088821    11.753045285     3.178263338
 H       -4.194546508    12.989671056     4.016231705
 H       -1.500114757    12.462047902    -1.561745501
 H       -1.126571605    14.179109339    -1.630982027
 H       -2.614877759    13.586009048    -2.358140104
 H       -3.627387944    15.464644369     0.821988809
 H       -3.906534742    15.375716968    -0.928306135
 H       -2.340450658    15.871387083    -0.302210253
 H       -0.650089740     0.867423310    -2.875694095
 H       -0.768029646    -0.678729765    -3.704754870
 H        0.781717886    -0.161997293    -3.053151902
 H       -0.474113468    -2.973643314    -0.771653058
 H        0.896308977    -2.462783312    -1.774689166
 H       -0.649761395    -2.848886958    -2.515673838
 H        0.895767568    -0.113743731     2.954850670
 H       -0.516543899    -0.826422783     3.719473513
 H       -0.645028247     0.763682473     2.978709890
 H       -2.517199009    -1.697029784     0.710593016
 H       -2.699966229    -0.188520401     1.629752861
 H       -2.424029642    -1.710439705     2.464451352

