187   

Si        0.000000000     0.000000000     0.000000000
 C        1.865106660     0.000000000     0.000000000
 C       -0.679755279     1.710780380     0.000000000
 C        0.093466633     2.791834107    -0.435428759
 C       -0.429291949     4.084996829    -0.432192996
 C       -1.736173161     4.326188859    -0.000558043
 C       -2.511598500     3.241090980     0.429596360
 C       -1.992726982     1.949385939     0.427700288
 C       -2.326520713     5.660273652     0.020973374
 C       -1.697487545     6.784268718    -0.362347670
 C       -2.293428666     8.116165092    -0.338512841
 C       -1.525270599     9.207194703    -0.766751901
 C       -2.052810996    10.495849152    -0.761173609
 C       -3.366786837    10.722134017    -0.332568993
 C       -4.135727109     9.635126537     0.096026133
 C       -3.601466447     8.347247332     0.096096951
Si       -4.073178118    12.420788268    -0.321361696
 C       -5.896647806    12.326030720    -0.244150733
 C       -6.683754488    12.989735636     0.612478360
 C       -8.143440983    12.881681729     0.636660866
 C       -8.864448893    13.625809190     1.580447661
 C      -10.247160145    13.558724319     1.644567336
 C      -10.969412529    12.772629694     0.721401952
 C      -10.244626110    12.025414658    -0.228073473
 C       -8.857114047    12.067438609    -0.247508028
 N      -12.371931612    12.702946586     0.784354745
 C      -13.086332501    13.842667602     1.383661111
 C      -13.065187147    12.152937765    -0.393468449
 C      -12.963748760    15.133757050     0.558253581
 C      -13.658647422    16.300339835     1.279279219
 N      -13.789964902    17.505687811     0.442797920
 C      -14.613304433    17.418974277    -0.694579157
 C      -15.661553839    16.476100709    -0.754140742
 C      -16.470467930    16.393792240    -1.876403545
 C      -16.307900422    17.273713046    -2.955128693
 C      -15.289913978    18.228794205    -2.881823608
 C      -14.457167503    18.311045074    -1.773942954
 C      -12.515771865    18.228455917     0.284029501
 C      -17.190365572    17.141197955    -4.114894877
 C      -17.129786639    17.922500465    -5.201814692
Si      -18.236029826    17.750882196    -6.647369681
 C      -18.778710816    16.009251318    -6.885506631
 C      -17.888414091    14.964931499    -6.600516997
 C      -18.276829831    13.639465785    -6.773097730
 C      -19.557656193    13.323416250    -7.245663316
 C      -20.440379934    14.366914331    -7.536560236
 C      -20.055775804    15.695973597    -7.360620898
 C      -19.917956684    11.919050785    -7.409914332
 C      -21.110085613    11.480806968    -7.848718007
 C      -21.469959585    10.076265894    -8.012820295
 C      -20.587474154     9.032714419    -7.722010242
 C      -20.973377941     7.703420572    -7.893584469
 C      -22.251115362     7.389103299    -8.366865027
 C      -23.138134413     8.433938360    -8.659562514
 C      -22.752061943     9.759527036    -8.481620769
Si      -22.775152983     5.639600908    -8.598564060
 C      -21.318785647     4.475081521    -8.548668594
 C      -23.995154958     5.156567802    -7.219830022
 C      -23.671087390     5.499443295   -10.272289128
 C      -19.743558382    18.885953372    -6.405031234
 C      -17.291191947    18.315022366    -8.199028197
 C       -3.368729274    13.382325776     1.160149985
 C       -3.579840513    13.318262557    -1.925156497
 C       -0.623687894    -0.912890020    -1.549329288
 C       -0.649293943    -0.917481300     1.536886479
 H        1.122345587     2.665616291    -0.783455815
 H        0.194275999     4.909748746    -0.772272508
 H       -3.532404474     3.406828055     0.769052943
 H       -2.645718442     1.142969530     0.772978677
 H       -3.358202622     5.696867649     0.383843161
 H       -0.666344054     6.749642273    -0.725291145
 H       -0.504170043     9.048631838    -1.107734291
 H       -1.406914048    11.308371317    -1.104728399
 H       -5.166898842     9.754728150     0.444972146
 H       -4.218012155     7.517816688     0.437866200
 H       -6.327506105    11.653561314    -1.005059036
 H       -6.288803412    13.672884353     1.375695917
 H       -8.330735185    14.262068229     2.287346310
 H      -10.767623309    14.125581871     2.410553740
 H      -10.758628442    11.397914670    -0.949177817
 H       -8.321430417    11.463752015    -0.982516016
 H      -14.157868760    12.211790798    -0.255545675
 H      -12.813041583    11.081462931    -0.493279627
 H      -12.808284740    12.670270493    -1.332804168
 H      -11.922264060    18.164747132     1.211215801
 H      -12.726921487    19.299748974     0.113249436
 H      -11.899319304    17.848141625    -0.547269492
 H      -15.839539633    15.796935418     0.074110341
 H      -17.257211035    15.638603084    -1.910622946
 H      -15.141440293    18.927578051    -3.706588833
 H      -13.681926346    19.070346210    -1.757005707
 H      -17.915296733    16.320595067    -4.014031276
 H      -16.401582057    18.744056918    -5.275232656
 H      -16.874190119    15.152647995    -6.231661493
 H      -17.574367918    12.841479688    -6.540508882
 H      -21.440772197    14.149063328    -7.905517555
 H      -20.790015527    16.468182274    -7.605651285
 H      -19.128031813    11.210181639    -7.144796079
 H      -21.900125057    12.189310632    -8.114420293
 H      -19.585597001     9.250605709    -7.356634301
 H      -20.239480632     6.930618723    -7.648704904
 H      -24.149262972     8.248481144    -9.032856500
 H      -23.455613053    10.557126334    -8.712631318
 H      -14.156983647    13.556647093     1.501036242
 H      -12.705351932    13.997354623     2.418846951
 H      -11.898677197    15.373679914     0.375862293
 H      -13.405673694    14.986670842    -0.446788029
 H      -14.674230840    16.002865271     1.628336986
 H      -13.098003623    16.575826761     2.201562956
 H        2.262788117    -1.029738147     0.041760940
 H        2.259773860     0.544684955     0.877148403
 H        2.276234026     0.478663354    -0.905844798
 H      -21.636529282     3.432341768    -8.727676715
 H      -20.805143082     4.502839776    -7.571785307
 H      -20.578265009     4.734309080    -9.327140605
 H      -24.235103141     4.067619010    -7.393014263
 C      -23.382011626     5.292201415    -5.813974388
 C      -25.315480046     5.946674032    -7.260353731
 H      -24.563766863     6.187114301   -10.203817878
 C      -22.799813449     5.974689708   -11.449045431
 C      -24.191004246     4.082552287   -10.573502207
 H      -20.374321133    18.771346438    -7.333382463
 C      -20.595843936    18.473205210    -5.191534073
 C      -19.368146692    20.372348377    -6.267828614
 H      -16.990074730    19.385537364    -8.008906879
 C      -16.011042773    17.493231144    -8.434033090
 C      -18.149860733    18.278927232    -9.475146025
 H       -3.913154989    14.370715631     1.174933446
 C       -3.630164999    12.669169669     2.499514485
 C       -1.861721997    13.672124818     1.041576499
 H       -2.452999939    13.375666103    -1.915704881
 C       -4.005081815    12.546121736    -3.186771825
 C       -4.129423092    14.753309069    -2.005085084
 H       -0.149315395    -1.935930262    -1.515040201
 C       -2.151849187    -1.095627301    -1.575577923
 C       -0.185697111    -0.227369295    -2.856517012
 H       -1.773902961    -0.928735218     1.439786475
 C       -0.171643430    -2.377925025     1.626649190
 C       -0.296608471    -0.193336400     2.848795611
 H      -22.476482776     4.688292403    -5.672679059
 H      -24.100406872     4.950183462    -5.055160135
 H      -23.132997427     6.331420626    -5.555121523
 H      -25.866284419     5.826539944    -8.201776813
 H      -25.174776570     7.022721739    -7.085777617
 H      -25.988408966     5.594014653    -6.465081197
 H      -22.431444297     7.003637675   -11.328769995
 H      -23.385053771     5.965238548   -12.379594122
 H      -21.928418379     5.330287084   -11.625580226
 H      -24.881129261     3.700943233    -9.810010418
 H      -23.384889609     3.346697005   -10.693630568
 H      -24.750292377     4.081914173   -11.520487107
 H      -20.952669927    17.435136099    -5.239624027
 H      -21.493047393    19.104625074    -5.127295728
 H      -20.064246722    18.594422263    -4.236221362
 H      -18.826822843    20.767410370    -7.136798621
 H      -18.764746872    20.579959176    -5.372934476
 H      -20.278432039    20.981707345    -6.171319058
 H      -15.314708782    17.517525691    -7.584701724
 H      -15.459451228    17.893025928    -9.296745375
 H      -16.217269428    16.438085236    -8.664632367
 H      -19.040505081    18.917761920    -9.419817187
 H      -18.481791748    17.264560753    -9.739302187
 H      -17.565040034    18.641809303   -10.332818361
 H       -4.692373932    12.460443354     2.686988140
 H       -3.285766793    13.295164766     3.334528276
 H       -3.089405079    11.715478798     2.586378425
 H       -1.600521954    14.267844728     0.157800580
 H       -1.250224062    12.758913654     1.025789538
 H       -1.521266873    14.251265350     1.912373318
 H       -3.612814787    11.519862845    -3.222056552
 H       -3.622189943    13.051377163    -4.084842057
 H       -5.095663009    12.489265757    -3.306772958
 H       -3.793183316    15.394763977    -1.180400048
 H       -5.228049833    14.790022169    -2.028516434
 H       -3.786110658    15.236925952    -2.930757498
 H       -2.536298161    -1.670482882    -0.723574898
 H       -2.448415442    -1.650236847    -2.477740301
 H       -2.695917744    -0.141029349    -1.611264965
 H        0.903148819    -0.131668790    -2.955467121
 H       -0.621335923     0.774666659    -2.979775986
 H       -0.521731743    -0.816726617    -3.721721515
 H       -0.449387298    -2.980909466     0.752558240
 H       -0.630386599    -2.869664452     2.496852000
 H        0.914430347    -2.465920093     1.762409831
 H       -0.653159562     0.846211654     2.880671099
 H        0.782035141    -0.178652467     3.054211470
 H       -0.766559528    -0.705511330     3.700443877

