187   

Si        0.000000000     0.000000000     0.000000000
 C        1.865237498     0.000000000     0.000000000
 C       -0.681083394     1.709948282     0.000000000
 C        0.135936195     2.814420036    -0.260573183
 C       -0.393368340     4.105012486    -0.257411060
 C       -1.749271783     4.320475146     0.001538702
 C       -2.567388688     3.212342041     0.260034005
 C       -2.041898364     1.923402156     0.259227178
 C       -2.347256797     5.651358712     0.015432978
 C       -1.677989354     6.793966074    -0.213755183
 C       -2.277503319     8.124324009    -0.199506526
 C       -1.461024050     9.233986311    -0.456033835
 C       -1.989113556    10.522474016    -0.452948597
 C       -3.351517822    10.729168940    -0.204853221
 C       -4.169480995     9.623556473     0.050607440
 C       -3.634939061     8.335849855     0.057774707
Si       -4.059375125    12.423632669    -0.198203469
 C       -5.855342253    12.355309262    -0.528936586
 C       -6.815408959    12.952389222     0.187601966
 C       -8.243855826    12.859664159    -0.129568700
 C       -9.162542424    13.528365080     0.693351300
 C      -10.523368037    13.468419167     0.431222641
 C      -10.991480026    12.709167169    -0.651424371
 C      -10.085995480    12.021384669    -1.464880276
 C       -8.722894192    12.093806098    -1.195726114
 N      -12.418028501    12.707874278    -0.843512375
 C      -12.835994435    13.741633228    -1.816350120
 C      -12.967860044    11.371763481    -1.134948303
 C      -12.615376360    13.385057507    -3.299467648
 C      -12.424440721    14.635615840    -4.178708339
 N      -11.018401796    15.021735287    -4.413201656
 C      -10.320075351    15.517990403    -3.285404255
 C      -10.895538218    16.583984341    -2.564241572
 C      -10.249748048    17.102695002    -1.454382411
 C       -8.999847020    16.610929250    -1.049697705
 C       -8.417232039    15.578916095    -1.787918537
 C       -9.055636609    15.044710477    -2.901378085
 C      -10.293681030    14.049379948    -5.248668828
 C       -8.365508655    17.197917076     0.130785938
 C       -7.176710118    16.819749200     0.620075742
Si       -6.421354411    17.582764768     2.100418479
 C       -7.707385291    18.182146027     3.270074658
 C       -8.905919645    17.467254332     3.401449488
 C       -9.893587058    17.901881876     4.280397793
 C       -9.704266185    19.051183056     5.059705122
 C       -8.504901559    19.757001852     4.932283076
 C       -7.515468568    19.327512201     4.047863629
 C      -10.769217480    19.466581188     5.966493645
 C      -10.719205225    20.548195184     6.762493440
 C      -11.785226509    20.962234050     7.668840010
 C      -12.983949845    20.255779793     7.795422561
 C      -13.976949047    20.687505982     8.674754249
 C      -13.788818640    21.834223396     9.452581281
 C      -12.586792648    22.544258441     9.328014734
 C      -11.599930449    22.113961526     8.445633508
Si      -15.089217835    22.417633948    10.617990540
 C      -16.416074531    21.130309370    10.866471486
 C      -14.256314350    22.834692645    12.278070545
 C      -15.895948596    23.998615501     9.930208906
 C       -5.393359009    16.255011425     2.995039262
 C       -5.266463049    18.984973419     1.546301375
 C       -3.709798433    13.198034133     1.503476491
 C       -3.270835292    13.517977586    -1.537881906
 C       -0.608595024    -0.925301951    -1.548241055
 C       -0.658266563    -0.902300961     1.541571116
 H        1.204176883     2.709102788    -0.469140539
 H        0.264305427     4.947850842    -0.461675797
 H       -3.626519465     3.357997676     0.464375860
 H       -2.728342944     1.098259126     0.469235300
 H       -3.419306653     5.668782192     0.233123935
 H       -0.606036431     6.777504131    -0.431332050
 H       -0.401308705     9.090626211    -0.657782073
 H       -1.304333897    11.350453844    -0.655659311
 H       -5.240712480     9.727822062     0.252541552
 H       -4.289705604     7.490901402     0.263594838
 H       -6.102112589    11.759019150    -1.424401047
 H       -6.606203061    13.557771538     1.080124476
 H       -8.806075577    14.121246585     1.536759744
 H      -11.238921266    14.001252578     1.057141363
 H      -10.440021670    11.421087302    -2.297355867
 H       -8.028341893    11.548047592    -1.834547097
 H      -14.068947914    11.437645825    -1.136384613
 H      -12.677332185    10.685850114    -0.319290584
 H      -12.643712548    10.930666905    -2.088311466
 H      -10.886882148    13.836638899    -6.154140202
 H      -10.072835994    13.094711173    -4.745391374
 H       -9.342770476    14.501730586    -5.584593601
 H      -11.846484018    17.002379417    -2.883388436
 H      -10.717929784    17.913532051    -0.895030534
 H       -7.447318440    15.172900730    -1.490398891
 H       -8.576882242    14.232695485    -3.439717858
 H       -8.973378108    17.989612232     0.593346820
 H       -6.579001192    16.032468244     0.136359457
 H       -9.107593944    16.560179842     2.820372930
 H      -10.821706862    17.339286993     4.363441700
 H       -8.332634111    20.652898664     5.525963201
 H       -6.599628658    19.921851528     3.990633007
 H      -11.651169103    18.819263260     5.962750728
 H       -9.837539697    21.195689455     6.766682833
 H      -13.153672514    19.357623013     7.204446369
 H      -14.893538169    20.093730247     8.729431620
 H      -12.383693853    23.446880433     9.911384252
 H      -10.673683927    22.679280309     8.361811801
 H      -13.914327006    13.942344180    -1.627846686
 H      -12.291680137    14.682023195    -1.560434371
 H      -11.733524145    12.724112755    -3.399954594
 H      -13.471292449    12.794092824    -3.671610943
 H      -12.889291087    14.468338545    -5.177858727
 H      -12.963195268    15.506055811    -3.742406651
 H        2.262398458    -1.029829576     0.047435363
 H        2.262329496     0.548822829     0.873277369
 H        2.274528787     0.472527325    -0.910070792
 H      -17.170643249    21.472688364    11.597107965
 H      -15.986867272    20.187120512    11.250644572
 H      -16.945269712    20.901302486     9.924951443
 H      -13.504131635    23.645349175    12.051355505
 C      -15.232970276    23.380292409    13.334998074
 C      -13.492807986    21.636687995    12.871088778
 H      -16.718908956    24.260507608    10.656566356
 C      -14.935367060    25.198370422     9.847192407
 C      -16.533299737    23.780794937     8.545639942
 H       -4.707838471    15.812713402     2.212539908
 C       -4.517162499    16.819479604     4.126090553
 C       -6.272211707    15.126539739     3.562986143
 H       -4.803292753    19.403011390     2.486014875
 C       -4.127875656    18.499052844     0.630361111
 C       -6.025306770    20.122899856     0.840909103
 H       -4.325251250    14.145649620     1.549883147
 C       -4.155370349    12.281669707     2.657518335
 C       -2.234998294    13.580825739     1.714001116
 H       -2.171805013    13.573460560    -1.290211191
 C       -3.409763054    12.917240721    -2.947763638
 C       -3.832993155    14.951594582    -1.545159261
 H       -0.105154781    -1.934680208    -1.516068140
 C       -2.130424525    -1.153897717    -1.574580209
 C       -0.192726172    -0.225453520    -2.855127427
 H       -1.782908552    -0.900890783     1.443363607
 C       -0.196287398    -2.366981764     1.640519078
 C       -0.299300800    -0.173349483     2.849087755
 H      -15.766261725    24.282803151    13.009564517
 H      -14.682594869    23.660248948    14.245143142
 H      -15.983784658    22.641905023    13.646057408
 H      -12.734445312    21.225182911    12.189640518
 H      -14.153045370    20.811169651    13.168171664
 H      -12.954579301    21.944490367    13.778977022
 H      -14.499321516    25.475574912    10.815249604
 H      -15.475526172    26.086999499     9.488992933
 H      -14.111064935    25.036589580     9.138446660
 H      -17.298827218    22.994329321     8.536429393
 H      -15.794620170    23.535049959     7.769115057
 H      -17.034673629    24.700850049     8.212542471
 H       -3.787114576    17.563227472     3.782492619
 H       -3.934750476    16.010450624     4.590589862
 H       -5.102957475    17.276395571     4.936076846
 H       -6.911877869    14.645312604     2.810587295
 H       -6.923559490    15.466034742     4.381487296
 H       -5.639669349    14.331983797     3.985217448
 H       -3.487033637    17.740203451     1.097480154
 H       -3.468507487    19.340425887     0.373178466
 H       -4.492163925    18.093769097    -0.324441158
 H       -6.822959269    20.563369065     1.454931810
 H       -6.478226512    19.808407841    -0.110914952
 H       -5.336262218    20.943796178     0.597654750
 H       -5.225947013    12.035413606     2.630690650
 H       -3.972250303    12.773483515     3.623599730
 H       -3.600833554    11.332716167     2.690942402
 H       -1.866733692    14.315086560     0.986291796
 H       -1.559185356    12.714607391     1.689636475
 H       -2.103830479    14.040166344     2.704873811
 H       -2.995291907    11.903213000    -3.033271792
 H       -2.861590245    13.532201351    -3.675730852
 H       -4.450868258    12.881305993    -3.297717236
 H       -3.702488574    15.477052865    -0.589590009
 H       -4.900852142    14.991359125    -1.805549714
 H       -3.311404383    15.555648441    -2.301194957
 H       -2.500444095    -1.725530282    -0.714074259
 H       -2.407342868    -1.732394735    -2.468036388
 H       -2.701977060    -0.216695773    -1.629171268
 H        0.892779755    -0.098548286    -2.956308246
 H       -0.656063591     0.764392463    -2.975536200
 H       -0.513766431    -0.822297367    -3.720879220
 H       -0.479803183    -2.972323782     0.769905252
 H       -0.660648967    -2.848543153     2.513457425
 H        0.888734308    -2.465582374     1.777474129
 H       -0.650236106     0.868290726     2.875417065
 H        0.779467572    -0.164099102     3.053640359
 H       -0.771923131    -0.677792494     3.703924469

