187   

Si        0.000000000     0.000000000     0.000000000
 C        1.865053435     0.000000000     0.000000000
 C       -0.674581868     1.711768330     0.000000000
 C        0.120112012     2.783825274    -0.417532836
 C       -0.389733807     4.080719907    -0.417958416
 C       -1.691536892     4.341773147     0.018115428
 C       -2.484787533     3.266700417     0.438394904
 C       -1.986348354     1.966297283     0.421768455
 C       -2.252756607     5.689062143     0.029153083
 C       -1.583549920     6.783388635    -0.371081783
 C       -2.108800815     8.142647052    -0.374841967
 C       -3.400973079     8.457763086     0.049980973
 C       -3.855700691     9.777116175     0.026289375
 C       -3.045845752    10.796777004    -0.479378298
 C       -1.756350892    10.478432239    -0.931215231
 C       -1.294016892     9.167994758    -0.875558998
Si       -3.576322266    12.556563711    -0.542894886
 C       -3.234129201    13.271831261    -2.188750485
 C       -3.233017957    12.565547718    -3.327668814
 C       -2.958621954    13.140688926    -4.644901541
 C       -2.983990257    12.306659853    -5.772275213
 C       -2.730760562    12.805485471    -7.039011358
 C       -2.357909431    14.156738451    -7.216040502
 C       -2.323270759    14.991926622    -6.080906837
 C       -2.648603981    14.490042447    -4.827590028
 N       -2.101884328    14.660358145    -8.498710124
 C       -1.576893692    13.741587868    -9.525948026
 C       -1.550948952    16.022403339    -8.584785407
 C       -0.413982988    12.826774845    -9.107579769
 C        0.901171625    13.553325799    -8.762092016
 N        1.460503261    13.238471532    -7.423596515
 C        1.280026183    11.879784312    -7.038060675
 C        1.874125671    10.894020975    -7.849772314
 C        1.735571791     9.553294949    -7.528850038
 C        1.023276540     9.154013683    -6.387779321
 C        0.449737145    10.137491945    -5.577912802
 C        0.577993168    11.486729059    -5.889989910
 C        1.110382651    14.236412173    -6.398973734
 C        0.907880955     7.722983188    -6.095863044
 C        0.253269085     7.228898148    -5.037237328
Si        0.077607615     5.456789391    -4.624699865
 C        0.071257203     4.321240062    -6.068798316
 C       -0.198638111     4.786048602    -7.360745146
 C       -0.198207833     3.907108902    -8.441567966
 C        0.052392089     2.541828444    -8.255545723
 C        0.307206012     2.077173300    -6.961666680
 C        0.311786895     2.954391848    -5.879144325
 C        0.042274884     1.660364732    -9.418182769
 C        0.270963589     0.336708911    -9.376533073
 C        0.260921374    -0.545022675   -10.538951274
 C        0.006621569    -0.083626888   -11.833086926
 C        0.006768904    -0.961917096   -12.916571048
 C        0.254634026    -2.325065672   -12.727338496
 C        0.508948000    -2.790800979   -11.430160310
 C        0.514157792    -1.910652274   -10.351631106
Si        0.258256796    -3.496813342   -14.146955791
 C       -0.481157189    -2.725099401   -15.675837966
 C        2.047190258    -4.021743571   -14.530942168
 C       -0.731882956    -5.043943519   -13.647175772
 C        1.511164747     5.007316573    -3.447874116
 C       -1.561407327     5.232630738    -3.682722155
 C       -5.439047740    12.711912863    -0.183996521
 C       -2.624920419    13.550278350     0.770714712
 C       -0.609373826    -0.859501444    -1.587556432
 C       -0.670282038    -0.941037766     1.509190495
 H        1.151883118     2.647263811    -0.754286558
 H        0.251819959     4.898566253    -0.744812544
 H       -3.502553435     3.445463533     0.779279031
 H       -2.653224350     1.165992769     0.753528835
 H       -3.282540157     5.760048460     0.387048217
 H       -0.546960292     6.701118561    -0.718272455
 H       -4.059783789     7.676076004     0.422341605
 H       -4.864376101     9.968778100     0.401429623
 H       -1.083967151    11.236702023    -1.348477498
 H       -0.289429477     8.938666660    -1.227703727
 H       -3.045416705    14.355546993    -2.186367671
 H       -3.424816842    11.483393816    -3.357623160
 H       -3.228169798    11.248648695    -5.656251295
 H       -2.827184834    12.147204254    -7.898100705
 H       -2.063812713    16.041204650    -6.169237855
 H       -2.640408343    15.167021969    -3.971754000
 H       -1.383891090    16.301798909    -9.638176793
 H       -0.603521855    16.149891059    -8.035585303
 H       -2.294240702    16.737242541    -8.183695001
 H        1.471840923    15.225105504    -6.726846735
 H        1.639943908    13.995309327    -5.460003345
 H        0.031204909    14.307281474    -6.184347192
 H        2.443814157    11.193463378    -8.725944688
 H        2.194582969     8.800735588    -8.169797999
 H       -0.113203439     9.853860653    -4.687186214
 H        0.100542265    12.225521941    -5.249668684
 H        1.415518513     7.087135089    -6.832841154
 H       -0.232349927     7.901637362    -4.309424752
 H       -0.418197734     5.839041201    -7.564357010
 H       -0.401720684     4.288481672    -9.440304230
 H        0.501024709     1.020184123    -6.790228841
 H        0.508510087     2.531067137    -4.888828522
 H       -0.171502897     2.158535832   -10.368348962
 H        0.484288968    -0.161655666    -8.426402419
 H       -0.194072846     0.971998449   -12.006784208
 H       -0.197356345    -0.541569122   -13.905199139
 H        0.708411557    -3.845720259   -11.221771952
 H        0.715312736    -2.290862065    -9.351983173
 H       -2.437209695    13.104471623    -9.852035070
 H       -1.285783765    14.332941902   -10.422377336
 H       -0.732779969    12.195947344    -8.250163239
 H       -0.227386558    12.099747864    -9.922202635
 H        1.688997944    13.269745809    -9.499215102
 H        0.781028515    14.651738392    -8.856373694
 H        2.260967885    -1.030230806     0.048318067
 H        2.261536926     0.547488764     0.874501889
 H        2.277924799     0.471969738    -0.908762345
 H       -0.514598265    -3.448172430   -16.510259756
 H        0.101742755    -1.851447210   -16.016337372
 H       -1.516690148    -2.387735970   -15.487789250
 H        1.981183592    -4.684318182   -15.441899044
 C        2.951985702    -2.824626925   -14.876111152
 C        2.709609196    -4.830509648   -13.401270909
 H       -0.197398079    -5.477432904   -12.752290530
 C       -2.171884407    -4.708814316   -13.218331641
 C       -0.773197261    -6.126229002   -14.740567855
 H        1.153793085     4.124704235    -2.843045642
 C        2.793599036     4.588923998    -4.188610215
 C        1.865922998     6.152313318    -2.480479535
 H       -1.418120385     5.731012382    -2.679243421
 C       -2.745858738     5.920539733    -4.383904871
 C       -1.919704377     3.758241999    -3.431189416
 H       -5.609161159    12.196287048     0.804941955
 C       -5.914060190    14.169608997    -0.045954450
 C       -6.301417819    12.010563251    -1.249053364
 H       -3.015296530    14.606755345     0.698678682
 C       -2.873677674    13.044532442     2.202436289
 C       -1.108247490    13.586991451     0.510971202
 H       -0.129138145    -1.879646564    -1.588087770
 C       -2.136127248    -1.048795159    -1.628917281
 C       -0.170514469    -0.121088260    -2.866125311
 H       -1.794082379    -0.943958184     1.400475393
 C       -0.202006006    -2.405759272     1.575436409
 C       -0.327559551    -0.244078835     2.838438132
 H        2.592622289    -2.238111955   -15.731387840
 H        3.957252739    -3.177958343   -15.146991306
 H        3.086253740    -2.133420484   -14.031494444
 H        2.169670624    -5.752274236   -13.150549158
 H        2.833942893    -4.249163130   -12.476742279
 H        3.720121636    -5.140800784   -13.704923952
 H       -2.221318542    -3.979009106   -12.397408150
 H       -2.677559168    -5.614569627   -12.854511750
 H       -2.786200010    -4.321754660   -14.042033885
 H        0.222176391    -6.469283890   -15.050996150
 H       -1.312104766    -5.804441818   -15.641543891
 H       -1.302052745    -7.015679495   -14.368158585
 H        2.653165462     3.732349226    -4.861578576
 H        3.566485876     4.290558346    -3.466595359
 H        3.228022324     5.402649339    -4.785921204
 H        1.007165272     6.554246187    -1.928633800
 H        2.344729472     6.999865640    -2.993834011
 H        2.587794833     5.801529506    -1.729590470
 H       -2.598003318     6.998166258    -4.536660457
 H       -3.652008133     5.821281418    -3.768454531
 H       -2.985232614     5.473753846    -5.358426195
 H       -1.159234577     3.215292231    -2.852237393
 H       -2.108393083     3.195704653    -4.355215579
 H       -2.843540488     3.694553857    -2.836599620
 H       -5.410501235    14.717755100     0.760446408
 H       -6.987377244    14.193276196     0.192558861
 H       -5.793833016    14.748131522    -0.972423239
 H       -6.059635461    10.947543155    -1.382561635
 H       -6.228637882    12.489024001    -2.237096705
 H       -7.361948873    12.051959226    -0.963705197
 H       -3.930479259    13.072968186     2.497752784
 H       -2.335899303    13.676480034     2.924037753
 H       -2.510622949    12.019329295     2.363629366
 H       -0.843852816    13.959596806    -0.487976018
 H       -0.630713434    12.605158879     0.639193817
 H       -0.620060749    14.259955720     1.230393394
 H       -2.523374117    -1.653184759    -0.799146179
 H       -2.424631108    -1.575262496    -2.550579795
 H       -2.685091123    -0.096240580    -1.636799213
 H        0.917724794    -0.009765926    -2.954032975
 H       -0.619787555     0.879342666    -2.955474011
 H       -0.495220559    -0.683393764    -3.753803745
 H       -0.470629162    -2.989078267     0.685194075
 H       -0.675838319    -2.912782751     2.428745164
 H        0.881538087    -2.502991799     1.724756980
 H       -0.682193964     0.795305610     2.888089917
 H        0.749224136    -0.236336959     3.054054588
 H       -0.806306757    -0.772176784     3.675511116

