187   

Si        0.000000000     0.000000000     0.000000000
 C        1.865003487     0.000000000     0.000000000
 C       -0.680013897     1.710723553     0.000000000
 C        0.092934547     2.790507008    -0.439234610
 C       -0.428467356     4.084081274    -0.436602059
 C       -1.733670519     4.327414012    -0.000947979
 C       -2.508776296     3.243827618     0.433435061
 C       -1.991230405     1.951464348     0.431745336
 C       -2.321612426     5.662638206     0.019704611
 C       -1.690783544     6.783956070    -0.368354535
 C       -2.281356891     8.118152103    -0.346606026
 C       -3.587297322     8.356500325     0.090027960
 C       -4.113026583     9.648148792     0.094496398
 C       -3.347682785    10.728355973    -0.355725076
 C       -2.038927135    10.492241321    -0.797710937
 C       -1.512516003     9.203507420    -0.787593423
Si       -4.012761126    12.443374295    -0.362213283
 C       -3.389354261    13.405804509    -1.786467431
 C       -3.061969291    12.866844829    -2.968780890
 C       -2.562575181    13.630987091    -4.112554072
 C       -2.253945340    12.949821968    -5.299120065
 C       -1.778156557    13.624510539    -6.411011198
 C       -1.640486037    15.030043844    -6.390056909
 C       -1.951721031    15.714742345    -5.199794780
 C       -2.382808252    15.015933107    -4.079010551
 N       -1.156687370    15.701406612    -7.524824295
 C       -1.466431794    15.123823479    -8.844717442
 C       -1.172081107    17.171192442    -7.493451468
 C       -2.962575840    14.911531369    -9.132651377
 C       -3.691309734    16.177582181    -9.614672439
 N       -3.548767521    16.475301015   -11.050773091
 C       -3.938981494    15.483015752   -11.964394458
 C       -4.991015962    14.599486818   -11.636940546
 C       -5.385157536    13.616544046   -12.529650917
 C       -4.790066484    13.501620998   -13.794168712
 C       -3.770624914    14.396714303   -14.128739402
 C       -3.350713880    15.377677755   -13.239529991
 C       -2.353799161    17.263771938   -11.385686995
 C       -5.244906262    12.444287379   -14.698586555
 C       -4.748814207    12.242327383   -15.926170461
Si       -5.276883468    10.941587651   -17.095748719
 C       -5.624624003    11.689524733   -18.739816145
 C       -5.978827644    13.039478840   -18.836490016
 C       -6.243918752    13.613614138   -20.079165586
 C       -6.173238071    12.850899938   -21.248150848
 C       -5.825165123    11.497285718   -21.147217617
 C       -5.554740796    10.921481506   -19.908582555
 C       -6.442122995    13.408515287   -22.569487950
 C       -6.784546605    14.686269710   -22.806075923
 C       -7.053233827    15.242895823   -24.127917186
 C       -6.977469637    14.480923707   -25.296547444
 C       -7.242570611    15.053820643   -26.540365884
 C       -7.598198805    16.402360678   -26.641146986
 C       -7.676843369    17.168628765   -25.470159137
 C       -7.405468280    16.595453800   -24.231008085
Si       -7.951284175    17.173919650   -28.274738064
 C       -8.126992870    15.890092428   -29.616680247
 C       -9.555880642    18.186271551   -28.119206106
 C       -6.532962917    18.354195990   -28.742052404
 C       -3.872474945     9.667220972   -17.255077041
 C       -6.840075082    10.049545269   -16.481915603
 C       -5.914158643    12.416318891    -0.425776191
 C       -3.468461710    13.315417979     1.238519919
 C       -0.623961209    -0.912564513    -1.549452104
 C       -0.649069637    -0.917678258     1.536872348
 H        1.120595264     2.662666888    -0.790435249
 H        0.195024609     4.907635854    -0.779886917
 H       -3.528225678     3.411166595     0.775910495
 H       -2.643980076     1.146316588     0.780386633
 H       -3.351926988     5.702463923     0.385444799
 H       -0.660543288     6.745192663    -0.734075655
 H       -4.206632034     7.531182128     0.435957884
 H       -5.137313020     9.772382409     0.456097394
 H       -1.395093527    11.300750757    -1.160888594
 H       -0.492667160     9.039713196    -1.130789995
 H       -3.313758051    14.489277753    -1.611556919
 H       -3.136684711    11.788239372    -3.169950921
 H       -2.377451891    11.866529588    -5.345994627
 H       -1.513077447    13.061439212    -7.301460601
 H       -1.853223696    16.792915789    -5.135671168
 H       -2.599969964    15.569394077    -3.164174083
 H       -0.774867260    17.575985699    -8.438804278
 H       -0.495686136    17.520096554    -6.689991595
 H       -2.173251839    17.599309726    -7.320834506
 H       -2.143173048    17.994448794   -10.587607381
 H       -2.554688960    17.846818421   -12.304661191
 H       -1.451821357    16.650941265   -11.548196403
 H       -5.497281047    14.681420093   -10.679244063
 H       -6.184335172    12.930661394   -12.245617783
 H       -3.291000412    14.332094369   -15.107178489
 H       -2.556339727    16.051069878   -13.543316893
 H       -6.044985391    11.825542870   -14.271468044
 H       -3.940541060    12.879159331   -16.323352545
 H       -6.054510202    13.684146093   -17.954348518
 H       -6.511509708    14.667474079   -20.130173062
 H       -5.764780330    10.886223952   -22.045586291
 H       -5.287428742     9.861492728   -19.891217889
 H       -6.345271383    12.696673786   -23.394500201
 H       -6.882086365    15.398364760   -21.981284980
 H       -6.707658192    13.427663517   -25.245241061
 H       -7.164857177    14.407509846   -27.418943035
 H       -7.951438544    18.227151541   -25.487551276
 H       -7.470408661    17.206984373   -23.332957170
 H       -1.005633375    15.762098148    -9.629865566
 H       -0.931051096    14.145594703    -8.913220711
 H       -3.076984059    14.104893963    -9.885873378
 H       -3.467142908    14.525607800    -8.222843678
 H       -4.783904642    16.083454825    -9.401304493
 H       -3.357827585    17.064370433    -9.032623487
 H        2.262847378    -1.029439133     0.047779682
 H        2.259710942     0.549770173     0.873986003
 H        2.276298991     0.473388311    -0.908562548
 H       -8.377074105    16.358267842   -30.585460380
 H       -8.933829949    15.173996941   -29.376675852
 H       -7.195463902    15.314190182   -29.756617482
 H       -9.354959409    18.964267863   -27.326196729
 C       -9.945524438    18.922201119   -29.413461800
 C      -10.747467098    17.332452581   -27.649281490
 H       -6.786476195    18.741335308   -29.771257881
 C       -6.397535781    19.563187199   -27.799167363
 C       -5.172383497    17.637951005   -28.823433020
 H       -4.252432746     8.871159604   -17.958672661
 C       -2.594893056    10.270485539   -17.865645576
 C       -3.519492478     8.991291554   -15.918489278
 H       -6.606120278     9.696797420   -15.435848190
 C       -8.060844750    10.985244388   -16.412211397
 C       -7.209653253     8.818039088   -17.327945445
 H       -6.250288054    11.848541261     0.489387377
 C       -6.543011768    13.820135198    -0.369758014
 C       -6.446428353    11.681547977    -1.669173924
 H       -3.904788228    14.354669072     1.191527545
 C       -3.999470878    12.630444051     2.509724534
 C       -1.938018847    13.443869143     1.341402029
 H       -0.149142885    -1.935405971    -1.515933214
 C       -2.152052701    -1.095811599    -1.575060019
 C       -0.186845175    -0.226004335    -2.856395454
 H       -1.773720314    -0.928191565     1.440387223
 C       -0.172254723    -2.378457593     1.625703946
 C       -0.295087655    -0.194371361     2.848870072
 H       -9.169514273    19.610263020   -29.772993420
 H      -10.842867553    19.534339584   -29.241245399
 H      -10.194298706    18.239140263   -30.236387658
 H      -10.562285543    16.816481438   -26.696158962
 H      -11.047562662    16.573008490   -28.383313347
 H      -11.627915246    17.970340499   -27.486616324
 H       -7.304414686    20.178738740   -27.746389447
 H       -5.596583349    20.227991545   -28.154403160
 H       -6.123310185    19.276068407   -26.774262433
 H       -5.158197921    16.807843073   -29.541334368
 H       -4.838611540    17.243788817   -27.852697759
 H       -4.394944662    18.342053678   -29.153066631
 H       -2.759668585    10.739200061   -18.846120661
 H       -1.845031203     9.482573759   -18.024617091
 H       -2.121994731    11.019020098   -17.215160227
 H       -4.365472802     8.461597984   -15.461847587
 H       -3.127376799     9.697307895   -15.172380629
 H       -2.733024722     8.238891610   -16.072951125
 H       -7.897162032    11.876930050   -15.791668284
 H       -8.917885006    10.455911306   -15.972814786
 H       -8.388420785    11.331411406   -17.403300986
 H       -6.429322917     8.046537496   -17.338435534
 H       -7.447920607     9.070340577   -18.370942549
 H       -8.109620250     8.336974334   -16.917893962
 H       -6.272365323    14.383728370     0.532155380
 H       -7.639668716    13.740119355    -0.363026799
 H       -6.286435273    14.437933707    -1.241698187
 H       -6.089478132    10.645557746    -1.751486181
 H       -6.191157164    12.192956467    -2.608781617
 H       -7.543564712    11.627594820    -1.635714428
 H       -5.095036136    12.586060359     2.555807856
 H       -3.677397345    13.188796209     3.400701960
 H       -3.617622298    11.607110083     2.636236844
 H       -1.486242078    13.973627319     0.491604931
 H       -1.433406213    12.471080457     1.432618396
 H       -1.666992805    14.015208554     2.240508273
 H       -2.536067108    -1.670320651    -0.722620747
 H       -2.448799457    -1.650989540    -2.476817771
 H       -2.696380961    -0.141379735    -1.611021200
 H        0.901901402    -0.128988143    -2.955386429
 H       -0.623671054     0.775569715    -2.979191814
 H       -0.522186213    -0.815366375    -3.721861905
 H       -0.449818689    -2.980595539     0.750958935
 H       -0.631682786    -2.870741725     2.495226390
 H        0.913715606    -2.467090394     1.761987073
 H       -0.652508847     0.844819953     2.882064048
 H        0.783873300    -0.178895029     3.052703320
 H       -0.763254624    -0.707640959     3.700829092

