187   

Si        0.000000000     0.000000000     0.000000000
 C        1.865309965     0.000000000     0.000000000
 C       -0.670423682     1.714676686     0.000000000
 C        0.113727142     2.789868454    -0.430697374
 C       -0.398373118     4.087071938    -0.428943546
 C       -1.705202350     4.338919206    -0.002946218
 C       -2.491453399     3.259910130     0.422626793
 C       -1.983227713     1.963743219     0.421784689
 C       -2.282606379     5.678853064     0.015940558
 C       -1.638277719     6.794982039    -0.365035036
 C       -2.215556007     8.134988669    -0.346202618
 C       -1.428335119     9.213381523    -0.772352352
 C       -1.935990184    10.509753785    -0.772051065
 C       -3.247778451    10.757624301    -0.347779861
 C       -4.035122756     9.683508374     0.079273910
 C       -3.521576314     8.386965362     0.082284338
Si       -3.920265683    12.470098393    -0.346722504
 C       -5.739854821    12.423700883    -0.185227156
 C       -6.468502941    13.128798096     0.689955050
 C       -7.927662502    13.061282338     0.785515325
 C       -8.581739180    13.848632903     1.744072433
 C       -9.960398864    13.821414591     1.875321876
 C      -10.737747306    12.955691099     1.075918763
 C      -10.081827235    12.163743583     0.114681701
 C       -8.703128079    12.239135682    -0.036236266
 N      -12.137842434    12.940283336     1.221773942
 C      -12.664809423    13.137131607     2.585369052
 C      -12.871127926    11.904463293     0.473157200
 C      -12.192291284    12.058537610     3.576661119
 C      -13.063937734    11.977384033     4.840373053
 N      -14.496659584    11.670178793     4.622332380
 C      -14.772992006    10.786892250     3.554033525
 C      -14.100613768     9.546307713     3.529979246
 C      -14.335932539     8.645827877     2.505472041
 C      -15.267195064     8.928571831     1.493682787
 C      -15.949647566    10.145604228     1.536273141
 C      -15.719013373    11.064541364     2.554701521
 C      -15.370162204    12.848533212     4.744875473
 C      -15.477276320     7.940786209     0.433593672
 C      -16.337351440     8.100649565    -0.580959767
Si      -16.606566211     6.872973814    -1.909262666
 C      -16.325762241     5.148175245    -1.337264149
 C      -16.564664609     4.804075361    -0.001973452
 C      -16.354893548     3.499277410     0.441733510
 C      -15.916566830     2.507032212    -0.439650570
 C      -15.687639661     2.851619893    -1.778237292
 C      -15.891850508     4.155126041    -2.223905923
 C      -15.683656371     1.128881821    -0.020601646
 C      -15.863992279     0.668169389     1.228841357
 C      -15.631038015    -0.710028665     1.647751172
 C      -15.188635809    -1.700893135     0.767731137
 C      -14.978693110    -3.006714243     1.210949020
 C      -15.200180436    -3.348089022     2.548687004
 C      -15.642679262    -2.355507933     3.433936858
 C      -15.856969558    -1.054675425     2.987264478
Si      -14.928179926    -5.066376591     3.150720440
 C      -14.042052573    -6.107015640     1.881220051
 C      -13.909658053    -4.977161205     4.756421512
 C      -16.605127147    -5.879092670     3.539115811
 C      -18.402576093     7.032005866    -2.514580039
 C      -15.434159197     7.281096683    -3.351398991
 C       -3.132515012    13.456235505     1.075989669
 C       -3.478931544    13.311710809    -1.995677825
 C       -0.626614823    -0.911731457    -1.548590498
 C       -0.652772978    -0.913031484     1.537790749
 H        1.143184345     2.655723690    -0.774134175
 H        0.233802850     4.906684512    -0.765622771
 H       -3.512451043     3.433799994     0.757424640
 H       -2.644420596     1.162349352     0.763057736
 H       -3.315469089     5.726912489     0.373410941
 H       -0.605592941     6.746826976    -0.722607691
 H       -0.408320581     9.038230688    -1.108454503
 H       -1.276345142    11.311243637    -1.115746301
 H       -5.065090268     9.820156772     0.425047097
 H       -4.152642333     7.567647267     0.421728033
 H       -6.223063953    11.746203095    -0.909128255
 H       -6.020249740    13.818511800     1.417134388
 H       -7.999115641    14.505372915     2.390676163
 H      -10.439160887    14.471873926     2.601238967
 H      -10.642014721    11.488944315    -0.525227159
 H       -8.222223161    11.626902346    -0.801058851
 H      -13.952442076    11.974052074     0.688441941
 H      -12.552125814    10.875873758     0.710518695
 H      -12.745125086    12.083226244    -0.609576123
 H      -15.183099395    13.331833627     5.720290113
 H      -16.425946535    12.522163270     4.753078823
 H      -15.237393623    13.600327434     3.951553374
 H      -13.400419008     9.299847130     4.325002155
 H      -13.798802969     7.696023366     2.493967347
 H      -16.682075453    10.386955834     0.764679234
 H      -16.268620120    12.000337590     2.553184884
 H      -14.858857736     7.039675014     0.552606792
 H      -16.938080142     9.017662142    -0.681244374
 H      -16.916921517     5.536627948     0.732337533
 H      -16.540923096     3.258225473     1.486877642
 H      -15.347247257     2.093657018    -2.481091335
 H      -15.697376362     4.363779664    -3.279436148
 H      -15.339011067     0.461150013    -0.815589505
 H      -16.209474175     1.335770288     2.023810225
 H      -15.004895544    -1.460456372    -0.277839923
 H      -14.634257715    -3.738636268     0.475154691
 H      -15.831343639    -2.563892909     4.490940654
 H      -16.202431523    -0.298061648     3.689326415
 H      -12.371744253    14.150714694     2.937778235
 H      -13.776625172    13.149976210     2.519576077
 H      -12.170554398    11.073085793     3.067685417
 H      -11.140353069    12.250300325     3.866568064
 H      -12.667585914    11.169769141     5.503532485
 H      -12.975788929    12.921576947     5.420325591
 H        2.263516609    -1.028551422     0.061152106
 H        2.259650722     0.561096051     0.866877066
 H        2.276274195     0.461558418    -0.914730169
 H      -13.844910403    -7.123232921     2.267017915
 H      -13.067842135    -5.660150760     1.611889746
 H      -14.632787186    -6.212364319     0.954406111
 H      -14.526931562    -4.369638992     5.480534478
 C      -13.650533796    -6.352621284     5.396333804
 C      -12.565311915    -4.252890234     4.561281136
 H      -16.366335254    -6.942388776     3.832009561
 C      -17.357581505    -5.220857668     4.709286593
 C      -17.537567569    -5.919120608     2.314459248
 H      -18.520444127     8.096631348    -2.868478510
 C      -18.728096004     6.097731129    -3.692723756
 C      -19.420143370     6.787422570    -1.385877135
 H      -15.688523816     6.555694534    -4.177087964
 C      -15.620149799     8.707514465    -3.898709265
 C      -13.955391714     7.080056547    -2.974628233
 H       -3.664163959    14.451701269     1.092335077
 C       -3.339573361    12.777863373     2.442730408
 C       -1.629512261    13.724796675     0.881765510
 H       -2.351810809    13.338873822    -2.038606819
 C       -3.981023603    12.517486817    -3.214648557
 C       -3.995501173    14.757906466    -2.090304041
 H       -0.154503272    -1.935787031    -1.514360201
 C       -2.155256616    -1.090831423    -1.573692847
 C       -0.188186276    -0.227264723    -2.856197550
 H       -1.777575965    -0.917339551     1.441716088
 C       -0.184045408    -2.376340519     1.627743134
 C       -0.294598266    -0.190453918     2.849092368
 H      -14.570813485    -6.901306610     5.634954075
 H      -13.111710389    -6.228562412     6.347066368
 H      -13.024722492    -7.004450180     4.772508426
 H      -12.674922168    -3.236489381     4.156641213
 H      -11.875449154    -4.798063246     3.903623416
 H      -12.051495182    -4.144604803     5.527144429
 H      -16.787099395    -5.213791458     5.646623502
 H      -18.283708531    -5.775861492     4.918977534
 H      -17.663838285    -4.187980614     4.491736683
 H      -17.107550275    -6.449558972     1.455159246
 H      -17.835696021    -4.917774630     1.971690545
 H      -18.468317840    -6.447269979     2.566651743
 H      -18.105453311     6.279035059    -4.578048529
 H      -19.769080571     6.247012861    -4.014580740
 H      -18.639120675     5.033035533    -3.432615482
 H      -19.288099678     7.457356385    -0.525336353
 H      -19.398926688     5.754712339    -1.008359477
 H      -20.441432380     6.957596950    -1.755184897
 H      -16.638188442     8.908655144    -4.255631066
 H      -14.957050150     8.867628044    -4.761296962
 H      -15.361514603     9.483685409    -3.164725960
 H      -13.727733000     6.061747629    -2.629461305
 H      -13.614016873     7.776866292    -2.195290375
 H      -13.315136761     7.257677140    -3.850186518
 H       -4.394220863    12.585960101     2.683374946
 H       -2.950603780    13.419240301     3.245827583
 H       -2.805723826    11.820177197     2.527460159
 H       -1.400915223    14.283686632    -0.034521349
 H       -1.028223811    12.804893586     0.875184684
 H       -1.246545774    14.332801879     1.714380349
 H       -3.617608484    11.480391548    -3.238364219
 H       -3.626125015    12.987548552    -4.142799175
 H       -5.077080033    12.487435559    -3.284084524
 H       -3.606217136    15.411911706    -1.299474273
 H       -5.092935717    14.822696641    -2.065110335
 H       -3.683103241    15.207921705    -3.043411674
 H       -2.541023872    -1.661848320    -0.719695462
 H       -2.453518216    -1.647631344    -2.473923148
 H       -2.696841310    -0.134902239    -1.612311219
 H        0.900722445    -0.132936465    -2.955623495
 H       -0.622567921     0.775345796    -2.979476664
 H       -0.525312384    -0.816382756    -3.721109978
 H       -0.465856903    -2.977787144     0.753884957
 H       -0.645411668    -2.865092037     2.498222992
 H        0.901517474    -2.470904233     1.763033919
 H       -0.646509726     0.850685748     2.881264749
 H        0.784430811    -0.180532126     3.052656578
 H       -0.765450995    -0.700353815     3.701578140

