187   

Si        0.000000000     0.000000000     0.000000000
 C        1.865437998     0.000000000     0.000000000
 C       -0.680636510     1.710252117     0.000000000
 C        0.143718134     2.818238404    -0.219193512
 C       -0.386329752     4.108526332    -0.216327124
 C       -1.750691973     4.320082109    -0.002319289
 C       -2.576019979     3.208351628     0.214612712
 C       -2.049398996     1.919880863     0.217163162
 C       -2.349656667     5.650555262     0.009396959
 C       -1.673611757     6.796500882    -0.179754502
 C       -2.274335459     8.126306052    -0.167699834
 C       -1.450465085     9.239911480    -0.379412706
 C       -1.979159178    10.528108927    -0.376633710
 C       -3.350026642    10.731100022    -0.176019544
 C       -4.175516338     9.621183871     0.033350371
 C       -3.640583384     8.333619744     0.041924134
Si       -4.064874037    12.426012203    -0.169373167
 C       -5.839996512    12.343244203    -0.595229681
 C       -6.841250748    12.916590682     0.084904596
 C       -8.251290151    12.821350116    -0.297148392
 C       -9.214541416    13.464903085     0.493683030
 C      -10.560944699    13.405216267     0.175266124
 C      -10.999884755    12.650300144    -0.934692249
 C      -10.034552671    12.003458624    -1.728642141
 C       -8.684208112    12.111112486    -1.419539506
 N      -12.370126466    12.602910571    -1.240477692
 C      -13.318899265    12.601924172    -0.112590737
 C      -12.777415029    11.761632074    -2.374700284
 C      -13.083795034    11.512188194     0.947320549
 C      -13.571573454    10.113833401     0.532134935
 N      -15.022121520     9.888499877     0.657226303
 C      -15.611844463    10.116103538     1.910695341
 C      -14.876621802     9.854632398     3.088014377
 C      -15.444122930    10.073968598     4.332244463
 C      -16.770226170    10.512188794     4.459483504
 C      -17.505739826    10.741030473     3.293789060
 C      -16.947639139    10.542771645     2.037328101
 C      -15.798581654    10.269557278    -0.531161739
 C      -17.320424520    10.728391673     5.798746753
 C      -18.570842730    11.144777829     6.037569638
Si      -19.310735439    11.431380564     7.683636305
 C      -20.105723816    13.089717948     7.726395937
 C      -19.696193514    14.090048586     6.836074442
 C      -20.295269908    15.346962289     6.864903901
 C      -21.307605990    15.638175948     7.788628227
 C      -21.709204519    14.638896825     8.679841271
 C      -21.115248476    13.377978185     8.650993682
 C      -21.904497812    16.969666869     7.779559085
 C      -22.883190066    17.375333835     8.606312983
 C      -23.480091787    18.706778583     8.597276008
 C      -23.079703075    19.706558563     7.707085250
 C      -23.677902084    20.966356251     7.733322588
 C      -24.697329239    21.251065833     8.647218771
 C      -25.101709198    20.249421954     9.540217080
 C      -24.498307141    18.995220207     9.516004295
Si      -25.496440799    22.908819966     8.694012809
 C      -25.092014600    23.908313283     7.171809301
 C      -27.378662504    22.662592278     8.836936016
 C      -24.892961622    23.857497939    10.229928036
 C      -20.622098004    10.088675360     7.998667472
 C      -18.000063534    11.336220492     9.058055984
 C       -3.796661927    13.203416845     1.544948893
 C       -3.181944203    13.498988954    -1.469646856
 C       -0.603471913    -0.927788688    -1.549000690
 C       -0.660524218    -0.899724698     1.541880814
 H        1.218227883     2.715718341    -0.394094862
 H        0.277570586     4.954353294    -0.385424368
 H       -3.641589907     3.351062267     0.384436374
 H       -2.741540579     1.092100334     0.395858568
 H       -3.428699483     5.664448095     0.189277833
 H       -0.594675022     6.783236924    -0.359543293
 H       -0.384168951     9.099630613    -0.545279181
 H       -1.287913758    11.359129496    -0.541008658
 H       -5.253652406     9.722318932     0.196661508
 H       -4.301846795     7.485878114     0.211235250
 H       -6.037067260    11.761796549    -1.511710314
 H       -6.679417808    13.507827483     0.995706406
 H       -8.899948207    14.034157198     1.369263768
 H      -11.278936748    13.945609364     0.785928301
 H      -10.326362022    11.417247159    -2.593413310
 H       -7.955577324    11.612766842    -2.061571018
 H      -13.867208694    11.834242186    -2.526256620
 H      -12.508376022    10.698749802    -2.260477872
 H      -12.302484478    12.148197506    -3.296666747
 H      -15.228922660    10.040353052    -1.446838567
 H      -16.083302779    11.334375204    -0.551996183
 H      -16.719933761     9.657420362    -0.568764122
 H      -13.858434978     9.481167653     3.025204712
 H      -14.850032308     9.886555202     5.227618212
 H      -18.540626553    11.081373210     3.362798684
 H      -17.556441088    10.734252115     1.160240794
 H      -16.600876505    10.516659016     6.600503161
 H      -19.271713425    11.339861115     5.208535950
 H      -18.907138502    13.919972554     6.096223146
 H      -19.968908789    16.110844942     6.161687924
 H      -22.493631929    14.839247157     9.407151904
 H      -21.471938680    12.636411167     9.370993764
 H      -21.492604262    17.650205587     7.028541001
 H      -23.295134016    16.694600093     9.357034763
 H      -22.292073465    19.509017740     6.982258157
 H      -23.320829067    21.708041697     7.013439683
 H      -25.893983582    20.414247575    10.275938544
 H      -24.824778028    18.230843787    10.218574096
 H      -13.257894474    13.607429935     0.371194827
 H      -14.353233524    12.533966851    -0.514670480
 H      -12.003159527    11.458947990     1.193963881
 H      -13.580473873    11.815239693     1.892237844
 H      -13.263805286     9.890301570    -0.512762693
 H      -13.060726047     9.341612784     1.157853189
 H        2.263062223    -1.030013682     0.036742368
 H        2.262618596     0.539904580     0.878719380
 H        2.274144590     0.481984790    -0.905409831
 H      -25.611179862    24.883287910     7.186369809
 H      -25.407702986    23.378313450     6.254839997
 H      -24.009571657    24.109449113     7.089333804
 H      -27.544711179    22.100994075     9.802086500
 C      -28.166107956    23.982401956     8.918894449
 C      -27.949838660    21.807948132     7.691091551
 H      -25.374297834    24.876165589    10.167803048
 C      -25.318060218    23.210455944    11.560232654
 C      -23.365500239    24.051014185    10.241461258
 H      -21.025067128    10.283932852     9.034362679
 C      -21.797758505    10.168893698     7.008661631
 C      -20.041499052     8.663872607     7.974521191
 H      -17.480034298    10.343843826     8.922483081
 C      -16.945020669    12.451701031     8.941188557
 C      -18.599046837    11.369811333    10.475457991
 H       -4.334325331    14.195390201     1.523817097
 C       -4.402092061    12.352587163     2.676530247
 C       -2.315532618    13.471142576     1.866988366
 H       -2.100079600    13.545856165    -1.152556072
 C       -3.238123585    12.883167359    -2.879029151
 C       -3.723219735    14.938221553    -1.528606787
 H       -0.091464971    -1.932960365    -1.518355975
 C       -2.123216963    -1.169375153    -1.576194765
 C       -0.193476002    -0.222791870    -2.855074113
 H       -1.785231531    -0.893718679     1.444001983
 C       -0.203573659    -2.366003856     1.640449012
 C       -0.298534598    -0.172078650     2.849311989
 H      -27.860853881    24.619640816     9.758942279
 H      -29.235681495    23.772593274     9.065614460
 H      -28.094583064    24.581296442     8.001299221
 H      -27.472868509    20.820885515     7.606852144
 H      -27.872782584    22.296846630     6.710889254
 H      -29.019636420    21.618428548     7.858882948
 H      -26.405879995    23.120623095    11.672917533
 H      -24.972706757    23.825736191    12.403995942
 H      -24.879105468    22.213908311    11.709855097
 H      -22.986076322    24.582132723     9.359047792
 H      -22.815714725    23.102014510    10.320670938
 H      -23.068271380    24.652102023    11.112814093
 H      -22.293173025    11.149998124     6.998819911
 H      -22.571472028     9.437632162     7.282597544
 H      -21.504609739     9.934536850     5.976093319
 H      -19.251224648     8.502900602     8.719024818
 H      -19.634604228     8.384270243     6.991986158
 H      -20.830079764     7.931885394     8.199991019
 H      -16.437000764    12.476728478     7.967544689
 H      -16.159396123    12.309079674     9.696382511
 H      -17.363822644    13.453014054     9.118082984
 H      -19.284463345    10.537154767    10.678342068
 H      -19.132200196    12.305977714    10.693476961
 H      -17.796836922    11.294800546    11.224069047
 H       -5.473838263    12.148697012     2.548395128
 H       -4.299541852    12.875042977     3.638004347
 H       -3.896302210    11.383618819     2.797543444
 H       -1.833880714    14.160058017     1.161488886
 H       -1.712871573    12.552664277     1.905620184
 H       -2.225066146    13.936906259     2.859174091
 H       -2.832404800    11.862740866    -2.925689112
 H       -2.637897055    13.484004721    -3.577021364
 H       -4.255373054    12.855179170    -3.293207093
 H       -3.632397183    15.476814867    -0.576537762
 H       -4.776926323    14.987021941    -1.839038219
 H       -3.157878597    15.523265022    -2.268027541
 H       -2.489796060    -1.739610219    -0.713346802
 H       -2.393766995    -1.754810853    -2.467139275
 H       -2.702362376    -0.237306099    -1.636785829
 H        0.890751972    -0.084290555    -2.954972055
 H       -0.666885818     0.762361513    -2.975052872
 H       -0.507346239    -0.822275255    -3.721565634
 H       -0.488472008    -2.969919576     0.769281212
 H       -0.670149304    -2.846473364     2.512796647
 H        0.881037789    -2.468142377     1.778073614
 H       -0.646318484     0.870620256     2.875864090
 H        0.780359449    -0.166173083     3.053259486
 H       -0.772275780    -0.675142572     3.704338197

