187   

Si        0.000000000     0.000000000     0.000000000
 C        1.865381168     0.000000000     0.000000000
 C       -0.680804862     1.709982770     0.000000000
 C        0.139054906     2.816069739    -0.244205413
 C       -0.390899707     4.106250204    -0.241049164
 C       -1.751577496     4.318862591    -0.005231769
 C       -2.572764558     3.209212361     0.235468262
 C       -2.045525073     1.920961249     0.239923381
 C       -2.348822556     5.649671545     0.007374428
 C       -1.671112557     6.790845040    -0.201684154
 C       -2.262934453     8.124253943    -0.190271069
 C       -3.623112314     8.344938421     0.044860997
 C       -4.145243212     9.638207086     0.046344679
 C       -3.306326094    10.738987134    -0.148282562
 C       -1.939885044    10.522116550    -0.372886573
 C       -1.427069908     9.228909452    -0.401462160
Si       -3.947110239    12.464564720    -0.154832935
 C       -2.571761999    13.548230977     0.377677294
 C       -2.168202917    14.653586579    -0.260564807
 C       -1.062826298    15.504208627     0.187928605
 C       -0.740274540    16.637204957    -0.573972181
 C        0.296173936    17.475756983    -0.194787879
 C        1.030799863    17.197504961     0.970437544
 C        0.699195547    16.085118558     1.749933864
 C       -0.355107707    15.260907602     1.367894581
 N        2.083168124    18.119319900     1.283139425
 C        3.298720643    17.844033923     0.479418854
 C        2.363547296    18.262120806     2.722636488
 C        4.074781238    16.574730878     0.884100674
 C        4.516872436    15.708121173    -0.311420895
 N        3.547229335    14.684593677    -0.757390018
 C        3.003270983    13.856965285     0.245691696
 C        3.803110899    13.476106536     1.344957550
 C        3.286214121    12.663256491     2.340662164
 C        1.981095296    12.159110824     2.261350222
 C        1.206201480    12.498983643     1.149562346
 C        1.708491019    13.314850443     0.144305909
 C        2.604900283    15.185104465    -1.772921744
 C        1.486709864    11.305088093     3.341955542
 C        0.260809559    10.767727891     3.374352282
Si       -0.399615161     9.696241653     4.701696652
 C       -2.034923653    10.400076431     5.173941182
 C       -2.256814932    11.770890338     4.995557988
 C       -3.481047763    12.339476658     5.341168275
 C       -4.507984500    11.553682600     5.872237516
 C       -4.279761178    10.184131139     6.058351472
 C       -3.054202861     9.613575917     5.721642942
 C       -5.803291042    12.111211187     6.246328367
 C       -6.140007202    13.405675497     6.115690273
 C       -7.431995378    13.971726917     6.486850054
 C       -8.465751613    13.202210510     7.026159712
 C       -9.685980729    13.785723399     7.367010601
 C       -9.896682690    15.155143034     7.178592649
 C       -8.861604597    15.928984906     6.636042703
 C       -7.646960718    15.342850084     6.291826877
Si      -11.500826981    15.940994214     7.623029312
 C      -12.556039391    14.807759456     8.663134985
 C      -11.134850177    17.551312208     8.569975156
 C      -12.452371545    16.375716188     6.032657776
 C       -0.603342300     7.922717849     4.049206317
 C        0.745460512     9.665597494     6.216773022
 C       -4.564029156    12.908368219    -1.894138535
 C       -5.382473824    12.628498174     1.080320795
 C       -0.607501238    -0.927067800    -1.547549351
 C       -0.657764376    -0.899231559     1.543519579
 H        1.210064633     2.712006971    -0.438810206
 H        0.269951176     4.950970436    -0.428191907
 H       -3.635252148     3.353029015     0.422122381
 H       -2.733865763     1.094417618     0.437533546
 H       -3.424769438     5.667718971     0.202846383
 H       -0.594637878     6.770391039    -0.398486099
 H       -4.290708264     7.503502746     0.218851073
 H       -5.219141817     9.749791826     0.217612346
 H       -1.239159144    11.347912082    -0.538927821
 H       -0.363924908     9.077429943    -0.582190944
 H       -2.087909746    13.217451427     1.313082256
 H       -2.638525555    15.012732995    -1.184711528
 H       -1.308002960    16.863060084    -1.476051784
 H        0.538401806    18.361698445    -0.779172711
 H        1.256419506    15.856463600     2.654956753
 H       -0.609644181    14.404157447     1.995692608
 H        3.032399468    19.129295957     2.861258477
 H        2.830720964    17.384992271     3.195184720
 H        1.420687830    18.484566698     3.252710072
 H        3.135173705    15.820167910    -2.500299575
 H        1.766302843    15.764551719    -1.347544547
 H        2.194083979    14.327854457    -2.337089825
 H        4.830009705    13.821078480     1.418310539
 H        3.915676564    12.402289580     3.191536630
 H        0.189735439    12.109010995     1.054957245
 H        1.070255324    13.553798193    -0.702499334
 H        2.226689411    11.144894236     4.136248145
 H       -0.458570410    10.931811182     2.552986476
 H       -1.490898313    12.435433246     4.579990935
 H       -3.628546230    13.409070691     5.199383508
 H       -5.065710054     9.556787264     6.473329153
 H       -2.927586191     8.541842056     5.896686239
 H       -6.513611970    11.388319140     6.656836181
 H       -5.426995147    14.127203105     5.704715407
 H       -8.325741750    12.134789840     7.186463951
 H      -10.456898027    13.132752128     7.785172202
 H       -8.969446488    17.004085868     6.466704067
 H       -6.855641166    15.959674267     5.869470354
 H        2.990756754    17.789626223    -0.588366221
 H        3.953925500    18.738987467     0.566307347
 H        4.963919586    16.856988251     1.476832386
 H        3.455759478    15.962205462     1.572710523
 H        4.782505142    16.350914109    -1.178633802
 H        5.456537932    15.164864321    -0.047554532
 H        2.263045343    -1.029659665     0.044948954
 H        2.262025677     0.547015391     0.874554998
 H        2.274443724     0.474962008    -0.908985395
 H      -13.498649318    15.301848755     8.959257978
 H      -12.029127745    14.516094458     9.589870980
 H      -12.821434942    13.883401951     8.120935608
 H      -10.535231931    18.196195979     7.863583596
 C      -12.400718120    18.333670538     8.962527662
 C      -10.281341945    17.312945647     9.828736301
 H      -13.442099645    16.795937292     6.374637395
 C      -11.755660786    17.441302030     5.167702514
 C      -12.734491715    15.139777630     5.158745755
 H       -0.807817925     7.276832549     4.951274833
 C       -1.794068785     7.784242075     3.088181135
 C        0.663018326     7.389598834     3.355877203
 H        1.755298482     9.334387947     5.837571923
 C        0.906241989    11.054815145     6.862280067
 C        0.295003989     8.669795588     7.300937916
 H       -4.836497353    14.002856055    -1.860689365
 C       -3.479744084    12.715751209    -2.970903459
 C       -5.818436133    12.120491152    -2.312369278
 H       -6.241677598    12.045352005     0.639040773
 C       -5.047931967    12.019094583     2.450532421
 C       -5.844876166    14.082521640     1.279885775
 H       -0.101131431    -1.935011596    -1.516086359
 C       -2.128669386    -1.159970792    -1.573212567
 C       -0.194629522    -0.225668177    -2.854606341
 H       -1.782318328    -0.900279673     1.444498864
 C       -0.192566181    -2.362540875     1.647111769
 C       -0.301314973    -0.165389803     2.849093969
 H      -13.028311816    18.604497428     8.103680570
 H      -12.121204673    19.279644339     9.448997736
 H      -13.031942966    17.794529638     9.681262947
 H       -9.330223410    16.803189494     9.617901945
 H      -10.804836242    16.730613264    10.598494095
 H      -10.017853674    18.273802072    10.293444404
 H      -11.581324404    18.387082866     5.696183638
 H      -12.382917081    17.687622000     4.298543886
 H      -10.793321213    17.098348497     4.762195938
 H      -13.304186034    14.358502185     5.678097519
 H      -11.818068872    14.677012598     4.765036566
 H      -13.334575326    15.426444276     4.283240772
 H       -2.762061026     8.022928348     3.547287257
 H       -1.872101035     6.748999725     2.723988810
 H       -1.696322882     8.414074928     2.190601640
 H        1.548551627     7.388667037     4.003209162
 H        0.916459588     7.948414034     2.443549295
 H        0.507708018     6.346188716     3.043699599
 H        1.259883839    11.826352332     6.164998635
 H        1.644691029    11.010575274     7.674850456
 H       -0.026296143    11.423207817     7.313720334
 H        0.266750562     7.629482000     6.952329445
 H       -0.691606368     8.910652425     7.721067378
 H        0.999309234     8.689371092     8.145252457
 H       -2.556200960    13.276230264    -2.772079425
 H       -3.849428798    13.064246120    -3.945316346
 H       -3.201246395    11.660732439    -3.108431899
 H       -6.680553958    12.292623335    -1.655098633
 H       -5.646599874    11.036081214    -2.364610419
 H       -6.136907560    12.427205738    -3.319331716
 H       -4.787881615    10.952074171     2.409308167
 H       -5.914630034    12.092973758     3.124390347
 H       -4.221641155    12.534898646     2.960910356
 H       -6.177379942    14.566668882     0.353557971
 H       -5.070594420    14.719367178     1.730963189
 H       -6.703722686    14.111103840     1.967324381
 H       -2.498438011    -1.725016005    -0.708345188
 H       -2.403029130    -1.746873407    -2.462015557
 H       -2.702313753    -0.224619254    -1.636675970
 H        0.890133883    -0.091544772    -2.954793482
 H       -0.664225437     0.761151496    -2.976224945
 H       -0.510883266    -0.825269535    -3.720180754
 H       -0.471659015    -2.970330123     0.776736382
 H       -0.658572252    -2.843494071     2.519467662
 H        0.892277078    -2.457991014     1.787733372
 H       -0.654269178     0.875650151     2.871684795
 H        0.777302641    -0.153372031     3.054345809
 H       -0.773581284    -0.668054648     3.705122010

