187   

Si        0.000000000     0.000000000     0.000000000
 C        1.865187741     0.000000000     0.000000000
 C       -0.673493505     1.713440357     0.000000000
 C        0.093710629     2.784631477     0.469698405
 C       -0.421080388     4.080849383     0.467606132
 C       -1.714021766     4.335328142     0.002706625
 C       -2.483532547     3.260295714    -0.461645085
 C       -1.972558145     1.965280889    -0.460673080
 C       -2.295000706     5.673592758    -0.018740049
 C       -1.668843347     6.788046894     0.395970615
 C       -2.253542493     8.124879008     0.372854728
 C       -1.488379914     9.203719278     0.836282854
 C       -2.004854241    10.496719469     0.833041750
 C       -3.303959064    10.740179873     0.369438786
 C       -4.069463903     9.665621301    -0.094697963
 C       -3.546656709     8.372892462    -0.095435516
Si       -3.991318351    12.446521644     0.362934815
 C       -5.808696917    12.381946104     0.179666530
 C       -6.533241585    13.081228929    -0.703429173
 C       -7.990374538    12.999825816    -0.817267992
 C       -8.640558694    13.781558047    -1.782028979
 C      -10.017647905    13.741360619    -1.930655149
 C      -10.807452996    12.944265094    -1.074463947
 C      -10.154021494    12.159106824    -0.104402396
 C       -8.769508054    12.175280348    -0.000651438
 N      -12.204721229    12.904181982    -1.226123442
 C      -12.859525443    14.087798193    -1.809029982
 C      -12.978885042    12.314128006    -0.120415274
 C      -12.744428157    15.338806586    -0.923106787
 C      -13.350045597    16.559328154    -1.635002464
 N      -13.442331781    17.748512013    -0.770215686
 C      -14.298659475    17.672109413     0.343571317
 C      -15.417180664    16.811639503     0.328742947
 C      -16.260862190    16.736005762     1.425387186
 C      -16.061018764    17.545081873     2.552512553
 C      -14.971492334    18.420462728     2.553579647
 C      -14.104614251    18.493646215     1.471291890
 C      -12.137539909    18.399971579    -0.560876378
 C      -16.983169642    17.423070146     3.682185563
 C      -16.893491956    18.141014956     4.810069130
Si      -18.050300240    17.982274833     6.217249594
 C      -18.730642092    16.278042234     6.348731039
 C      -17.924165861    15.184947682     6.009675030
 C      -18.417714062    13.884795526     6.101301051
 C      -19.721781209    13.645701536     6.544598942
 C      -20.524224434    14.740325654     6.891224915
 C      -20.035228066    16.041252191     6.797033093
 C      -20.280243817    12.302293530     6.656317893
 C      -19.618886740    11.171498880     6.356570360
 C      -20.176711182     9.827855757     6.468052738
 C      -21.481061875     9.587047031     6.907204819
 C      -21.974034481     8.285442016     6.998702379
 C      -21.173134517     7.194827932     6.646021566
 C      -19.864563782     7.433784794     6.204441370
 C      -19.373552370     8.733553583     6.119380642
Si      -21.807910763     5.470676239     6.760774059
 C      -23.655580971     5.434672633     7.014869132
 C      -21.346749209     4.558373939     5.154955682
 C      -20.973560001     4.581892097     8.222717912
 C      -17.109242465    18.391236818     7.819024729
 C      -19.460137712    19.240854424     5.998693515
 C       -3.578011312    13.293462486     2.016215499
 C       -3.194579857    13.438256375    -1.050739234
 C       -0.648347985    -0.916565254    -1.537804189
 C       -0.628657242    -0.910842365     1.548317953
 H        1.111799106     2.647877804     0.844619297
 H        0.197850323     4.897614825     0.834503258
 H       -3.493476958     3.436369480    -0.827289626
 H       -2.620614837     1.167163523    -0.833247734
 H       -3.315839674     5.722031912    -0.409482472
 H       -0.648280233     6.740998376     0.786636934
 H       -0.478511818     9.031784432     1.203382441
 H       -1.362279578    11.298994093     1.205955662
 H       -5.088694069     9.798881179    -0.472252268
 H       -4.160373740     7.553337149    -0.464872559
 H       -6.293638945    11.697577029     0.895875454
 H       -6.082859749    13.776657216    -1.423771826
 H       -8.054609285    14.426134322    -2.438157030
 H      -10.481783374    14.336140972    -2.711576206
 H      -10.720919753    11.522801307     0.567693976
 H       -8.289176340    11.542368597     0.747880997
 H      -14.058691555    12.377988227    -0.336269334
 H      -12.791946216    12.799373978     0.851943880
 H      -12.733114444    11.239736756    -0.038876976
 H      -11.536684666    18.352843502    -1.484448022
 H      -11.550495519    17.949795380     0.256709612
 H      -12.298792523    19.470713405    -0.339906608
 H      -15.623313290    16.192262665    -0.538966281
 H      -17.104056990    16.043985451     1.401239714
 H      -14.792455504    19.062807697     3.417259347
 H      -13.272560980    19.189085596     1.513899419
 H      -17.766299540    16.668380777     3.520094416
 H      -16.106690782    18.898208652     4.944725577
 H      -16.893704572    15.310880273     5.659821336
 H      -17.773420678    13.052019442     5.825846130
 H      -21.542125251    14.575933343     7.239249629
 H      -20.707545531    16.854929380     7.082084858
 H      -21.313526013    12.264550581     7.013597375
 H      -18.585401790    11.209349186     5.999910179
 H      -22.126492719    10.418658740     7.184081275
 H      -23.002037291     8.160209057     7.349977381
 H      -19.193104093     6.620509236     5.914742420
 H      -18.354153738     8.898889965     5.776092045
 H      -12.422537166    14.275097236    -2.816403855
 H      -13.929869948    13.837825319    -1.991473983
 H      -13.253969334    15.168663658     0.045516991
 H      -11.684914968    15.530839073    -0.665752160
 H      -12.745073509    16.826204208    -2.531356657
 H      -14.368178340    16.326522888    -2.023190508
 H        2.263251292    -1.028726612    -0.059070697
 H        2.276809483     0.463824633     0.913278964
 H        2.259066581     0.559273659    -0.868301145
 H      -24.033080609     4.396856981     7.043173186
 H      -24.178935510     5.955317806     6.192452522
 H      -23.948110972     5.920584869     7.962167284
 H      -20.219600031     4.583794327     5.097728236
 C      -21.786046480     3.083508751     5.138743692
 C      -21.897254617     5.259689106     3.899977358
 H      -21.449933183     3.560001302     8.269093443
 C      -19.456358770     4.391995289     8.046937398
 C      -21.229322127     5.289328414     9.566199999
 H      -16.722356453    19.443537419     7.693610931
 C      -18.003534414    18.356030942     9.070486063
 C      -15.902522910    17.461516909     8.040084732
 H      -20.119117146    19.134385851     6.908209519
 C      -18.968347545    20.698069425     5.937550302
 C      -20.313367549    18.950162091     4.751012915
 H       -2.451771580    13.334230460     2.071501588
 C       -4.112310896    14.733693257     2.104914203
 C       -4.083947837    12.493791913     3.230010987
 H       -3.731106556    14.430855194    -1.072326345
 C       -1.695234636    13.714226545    -0.839106106
 C       -3.382680043    12.759687715    -2.419996164
 H       -1.773351628    -0.921895760    -1.444923079
 C       -0.286718356    -0.196691592    -2.849609858
 C       -0.178195111    -2.379711812    -1.623456404
 H       -0.158176955    -1.935654165     1.514966462
 C       -0.190479421    -0.226562095     2.856110703
 C       -2.157647652    -1.087302787     1.571386917
 H      -21.370598642     2.496804394     5.968273330
 H      -21.437753621     2.598498919     4.215169665
 H      -22.877161212     2.961294472     5.155990443
 H      -21.576951826     6.307856158     3.813146132
 H      -22.993828978     5.243440776     3.845159885
 H      -21.534828845     4.752218780     2.994650900
 H      -19.188723414     3.826478223     7.145498705
 H      -19.048595719     3.824482597     8.896308339
 H      -18.907363262     5.343952291     8.024492413
 H      -22.294587587     5.389898585     9.810754797
 H      -20.781070298     6.292316770     9.612969992
 H      -20.779036040     4.712926419    10.387130644
 H      -18.841304117    19.063648429     9.027991664
 H      -17.416966560    18.628358126     9.959936412
 H      -18.418454581    17.358014533     9.272173746
 H      -15.184806034    17.472576281     7.208455615
 H      -16.195252811    16.415672322     8.212197220
 H      -15.344077092    17.774448631     8.933697527
 H      -18.414194292    21.009556609     6.832045155
 H      -19.826706647    21.380536133     5.856092702
 H      -18.334118601    20.898324781     5.062485514
 H      -20.748973045    17.941476490     4.743707817
 H      -19.752573021    19.073152650     3.812803004
 H      -21.158358454    19.650942728     4.699141971
 H       -3.724856068    15.391118087     1.316068718
 H       -3.812077901    15.188648327     3.059632969
 H       -5.210084084    14.785353575     2.071603041
 H       -3.708053234    11.461196440     3.258455884
 H       -5.180203422    12.450143286     3.287369809
 H       -3.745162296    12.968712443     4.161757938
 H       -1.480843369    14.281185605     0.075641833
 H       -1.303735173    14.317139110    -1.671458278
 H       -1.090298101    12.796841152    -0.817483101
 H       -4.433480304    12.562596856    -2.673001479
 H       -2.843050974    11.804679309    -2.499133757
 H       -2.987724005    13.403223243    -3.218444098
 H       -0.638587860     0.844313072    -2.885225302
 H       -0.754720668    -0.708518907    -3.702482664
 H        0.792943439    -0.186988978    -3.050035315
 H       -0.464239718    -2.980302253    -0.750364004
 H        0.908088090    -2.473908001    -1.753090094
 H       -0.634687230    -2.869755915    -2.495771346
 H        0.898551455    -0.135199670     2.957134682
 H       -0.530577605    -0.814389458     3.720804825
 H       -0.622489497     0.777197003     2.978203193
 H       -2.543119557    -1.657673289     0.716838142
 H       -2.697621667    -0.130417293     1.608805176
 H       -2.458275485    -1.643537284     2.471182193

