187   

Si        0.000000000     0.000000000     0.000000000
 C        1.865207976     0.000000000     0.000000000
 C       -0.680612741     1.710381446     0.000000000
 C        0.119162585     2.804636731     0.344746095
 C       -0.406528954     4.096585642     0.341512510
 C       -1.742180345     4.323799588    -0.000337700
 C       -2.543405120     3.225753471    -0.341129999
 C       -2.021534592     1.935192322    -0.339705211
 C       -2.335149849     5.656928179    -0.017543607
 C       -1.679925843     6.790464809     0.286108128
 C       -2.274104088     8.123154351     0.268522455
 C       -1.473492019     9.222127919     0.608311737
 C       -1.996560817    10.512403625     0.605615433
 C       -3.338205460    10.732864007     0.269145787
 C       -4.139547420     9.638029676    -0.070671738
 C       -3.610124079     8.347863506    -0.074105686
Si       -4.034070263    12.435716604     0.264100772
 C       -5.859576146    12.357380033     0.301548045
 C       -6.692184743    13.010296713    -0.519422590
 C       -8.151498325    12.915973122    -0.450908306
 C       -8.923453886    13.646636064    -1.364569325
 C      -10.307998118    13.591368551    -1.341213638
 C      -10.975727837    12.748142257    -0.427265951
 C      -10.199703512    12.010556886     0.488010995
 C       -8.815261381    12.116506898     0.483933212
 N      -12.381394716    12.693422326    -0.405091355
 C      -13.088483746    12.981002340    -1.665516159
 C      -12.991203770    11.581221596     0.344673703
 C      -12.786762089    11.959611273    -2.773692039
 C      -13.476825912    12.367876306    -4.084973937
 N      -13.269015036    11.397900542    -5.174728807
 C      -13.795980498    10.105435083    -4.994221175
 C      -14.949559545     9.910691071    -4.204701056
 C      -15.471793998     8.639892986    -4.024307538
 C      -14.904948431     7.525200782    -4.657615346
 C      -13.782028772     7.723748113    -5.465508484
 C      -13.235156695     8.987877580    -5.642286112
 C      -11.921709973    11.489144454    -5.764027820
 C      -15.496495017     6.205728084    -4.432231255
 C      -15.040617369     5.072620203    -4.983070144
Si      -15.775323519     3.421590135    -4.705287026
 C      -17.583434222     3.510960971    -4.379358601
 C      -18.348636541     4.528572685    -4.960657837
 C      -19.719719837     4.608379117    -4.722343490
 C      -20.359560958     3.666675144    -3.911454002
 C      -19.593463969     2.643225327    -3.338394714
 C      -18.222485492     2.563613254    -3.570383671
 C      -21.791464584     3.710462621    -3.634294393
 C      -22.636819789     4.635584171    -4.119337134
 C      -24.068758347     4.679402258    -3.842192074
 C      -24.708092849     3.741369616    -3.027709760
 C      -26.080173985     3.821002740    -2.789305482
 C      -26.842450439     4.846841579    -3.356439834
 C      -26.203305850     5.789620646    -4.173241064
 C      -24.834995639     5.704211093    -4.413918178
Si      -28.654004318     4.967052206    -3.052416789
 C      -29.199168350     3.819821223    -1.686140438
 C      -29.061289415     6.770535180    -2.599391547
 C      -29.598081354     4.512376868    -4.641483218
 C      -15.489323132     2.372504358    -6.266371546
 C      -14.886811438     2.592884569    -3.241008449
 C       -3.435330387    13.362827852     1.814430619
 C       -3.418174250    13.360539582    -1.279201154
 C       -0.652264955    -0.906579008    -1.541979960
 C       -0.617759622    -0.921183291     1.546789394
 H        1.171112977     2.689816182     0.620346429
 H        0.237888785     4.931541136     0.610675788
 H       -3.586599249     3.380557649    -0.610244975
 H       -2.694690483     1.118282809    -0.614377270
 H       -3.390605749     5.684232499    -0.304280425
 H       -0.624615547     6.763797943     0.572945527
 H       -0.430392665     9.068198494     0.877531490
 H       -1.324788390    11.331152897     0.877605294
 H       -5.193403051     9.752725217    -0.345153343
 H       -4.252487337     7.512096120    -0.345412618
 H       -6.248332956    11.706146634     1.102623241
 H       -6.339636155    13.672349839    -1.320917203
 H       -8.429994444    14.282662380    -2.100266261
 H      -10.872573446    14.200436214    -2.040712069
 H      -10.671378769    11.357110467     1.215122822
 H       -8.240671126    11.546990108     1.216832520
 H      -14.089868506    11.621995851     0.256786842
 H      -12.753272517    11.694489094     1.417954059
 H      -12.654192031    10.587598382     0.005568626
 H      -11.602808808    12.543424696    -5.819404573
 H      -11.954484250    11.111458076    -6.802072211
 H      -11.158303208    10.926169637    -5.201765363
 H      -15.435213146    10.754701231    -3.724086874
 H      -16.349517108     8.510627250    -3.389242681
 H      -13.320843836     6.874388757    -5.971970699
 H      -12.363628940     9.095541964    -6.279962330
 H      -16.368419858     6.231631795    -3.763112493
 H      -14.159454026     5.073787983    -5.642638540
 H      -17.903800782     5.289462677    -5.611408031
 H      -20.291567292     5.413819035    -5.179681930
 H      -20.072458376     1.899215803    -2.705007204
 H      -17.677511532     1.742594855    -3.096789290
 H      -22.155589895     2.912344855    -2.980779384
 H      -22.273149250     5.433109163    -4.774078842
 H      -24.137096296     2.934872495    -2.571350802
 H      -26.524146117     3.057126211    -2.144987452
 H      -26.748100546     6.613503751    -4.642954809
 H      -24.356920282     6.444418008    -5.052797748
 H      -14.181423810    13.012533597    -1.452684736
 H      -12.819779715    14.011159524    -1.993451299
 H      -11.693306046    11.872633886    -2.926672107
 H      -13.118476473    10.948888100    -2.465473192
 H      -14.572568684    12.496580021    -3.931128138
 H      -13.105930323    13.360840332    -4.427236075
 H        2.262697479    -1.028877267    -0.061627076
 H        2.275752739     0.460674293     0.915493927
 H        2.260661385     0.560958745    -0.866329516
 H      -30.278802749     3.930961829    -1.480280115
 H      -28.658676590     4.036737865    -0.746904851
 H      -29.017207522     2.761707239    -1.943638081
 H      -28.738361552     7.392354526    -3.484567197
 C      -30.561877733     7.022221966    -2.368640690
 C      -28.275176625     7.260364741    -1.369571978
 H      -30.691608520     4.544103247    -4.365075789
 C      -29.371505099     5.498873586    -5.800978380
 C      -29.270961881     3.090530934    -5.133863495
 H      -14.372201645     2.337462578    -6.419105371
 C      -15.998455913     0.927498271    -6.125285471
 C      -16.123514340     3.006622920    -7.517354562
 H      -15.326833000     1.557897525    -3.152257682
 C      -13.369886517     2.446934036    -3.456103411
 C      -15.134316122     3.333421960    -1.914387504
 H       -2.310547976    13.405483496     1.736337359
 C       -3.963171475    14.805869970     1.894135125
 C       -3.792611409    12.623922959     3.116469310
 H       -3.958939337    14.351083702    -1.282328058
 C       -1.905722157    13.645392252    -1.261211201
 C       -3.764748125    12.619205642    -2.583546346
 H       -1.777079562    -0.909914700    -1.446593586
 C       -0.293095156    -0.177916231    -2.849638180
 C       -0.184259133    -2.369595891    -1.638130261
 H       -0.122366471    -1.934500220     1.517474141
 C       -0.201067042    -0.223787553     2.854809228
 C       -2.141790324    -1.135701582     1.566351520
 H      -31.184232987     6.764505342    -3.235319805
 H      -30.737268188     8.089871055    -2.171371885
 H      -30.958377070     6.481020742    -1.499383841
 H      -27.185980175     7.164999925    -1.485134232
 H      -28.556559789     6.739765050    -0.444691013
 H      -28.472989419     8.327761955    -1.196238146
 H      -29.636410528     6.534329501    -5.552683489
 H      -30.000586077     5.219667569    -6.658862249
 H      -28.335347275     5.493582490    -6.167708831
 H      -29.488675976     2.310895580    -4.392629690
 H      -28.221080799     2.974973352    -5.439511390
 H      -29.876822575     2.850010290    -6.019257537
 H      -15.516394041     0.373133189    -5.310076215
 H      -15.788679528     0.363273536    -7.045595194
 H      -17.085845712     0.869365287    -5.973113633
 H      -15.766199437     4.025743171    -7.719240939
 H      -17.221385178     3.044075230    -7.467150327
 H      -15.877530382     2.411470338    -8.408101352
 H      -13.110048463     1.862303206    -4.347699853
 H      -12.918705485     1.920519683    -2.602627813
 H      -12.853559539     3.414678249    -3.526740577
 H      -16.198996858     3.429324956    -1.659755782
 H      -14.700054868     4.343700854    -1.902312692
 H      -14.666863033     2.786662093    -1.083543189
 H       -3.671304471    15.424289191     1.035630046
 H       -3.558506888    15.306290328     2.785487577
 H       -5.057941373    14.856781126     1.983730863
 H       -3.410589008    11.593860610     3.151567251
 H       -4.874595243    12.583852178     3.302989187
 H       -3.350454170    13.144075421     3.978139091
 H       -1.586360743    14.252995430    -0.404977872
 H       -1.619690192    14.210145468    -2.160539354
 H       -1.297846737    12.729747258    -1.270859557
 H       -4.837017668    12.410457617    -2.699493830
 H       -3.232691859    11.661863383    -2.682802328
 H       -3.471763131    13.225439915    -3.452055199
 H       -0.649729949     0.861710592    -2.878822343
 H       -0.759527185    -0.686552144    -3.705312784
 H        0.786353856    -0.162659779    -3.050399923
 H       -0.467890159    -2.975132610    -0.767658385
 H        0.901499930    -2.464114986    -1.772023231
 H       -0.644219077    -2.853811653    -2.511873147
 H        0.884778659    -0.101992337     2.958206748
 H       -0.526746361    -0.819736176     3.719470445
 H       -0.660338384     0.768074904     2.974696765
 H       -2.512688653    -1.707032384     0.706073424
 H       -2.704940787    -0.192875397     1.613636858
 H       -2.428715197    -1.708203054     2.460504316

