187   

Si        0.000000000     0.000000000     0.000000000
 C        1.865477363     0.000000000     0.000000000
 C       -0.687178202     1.707365978     0.000000000
 C        0.139741656     2.824665474    -0.150977155
 C       -0.398777776     4.111630275    -0.148547572
 C       -1.774199605     4.309877833    -0.004551186
 C       -2.601942342     3.188750758     0.145178056
 C       -2.066878408     1.903956733     0.150565801
 C       -2.384092149     5.635227098     0.004097208
 C       -1.710999164     6.791523674    -0.122281427
 C       -2.328684532     8.113674729    -0.112624402
 C       -1.511396557     9.242685770    -0.253809124
 C       -2.058322636    10.523800150    -0.250184383
 C       -3.437681667    10.706321065    -0.095167883
 C       -4.256080410     9.579412247     0.044725443
 C       -3.706956076     8.298502394     0.029886768
Si       -4.187933973    12.386388736    -0.086495894
 C       -5.696929236    12.461321138     0.942660209
 C       -5.913598208    11.698432982     2.022774179
 C       -7.122516514    11.760621454     2.844674053
 C       -7.232612698    10.908373491     3.953416072
 C       -8.355280677    10.927085350     4.763725321
 C       -9.444445186    11.773607676     4.456794696
 C       -9.336147118    12.626899801     3.341379815
 C       -8.182383571    12.628368979     2.568576961
 N      -10.571743468    11.778831886     5.288345161
 C      -10.984003360    10.504559074     5.898828578
 C      -11.681238455    12.669698869     4.925938304
 C      -11.113220713     9.311917566     4.933066295
 C      -12.377830003     9.330119358     4.056911876
 N      -13.665821138     9.160794798     4.758968874
 C      -14.244457887    10.357728131     5.251486502
 C      -14.599076065    11.339032588     4.303265740
 C      -15.168806615    12.531843833     4.716049745
 C      -15.435365148    12.773205521     6.072818027
 C      -15.109749826    11.784710594     7.004285364
 C      -14.533241716    10.583384681     6.605181745
 C      -13.696388397     8.005845483     5.668744995
 C      -16.039008075    14.052284062     6.454080420
 C      -16.337785560    14.393905626     7.713664163
Si      -17.090366244    15.973137786     8.245706941
 C      -18.529143301    15.638680831     9.340353966
 C      -19.159023449    14.390072703     9.318586843
 C      -20.250420229    14.134123997    10.147921049
 C      -20.741560133    15.120593364    11.007446402
 C      -20.112098291    16.372696420    11.022376535
 C      -19.019630442    16.630834269    10.198618912
 C      -21.880347841    14.897175092    11.892058701
 C      -22.570038773    13.746850749    11.974632115
 C      -23.708927528    13.521992679    12.858688924
 C      -24.199447705    14.505274607    13.721704502
 C      -25.291413631    14.246786297    14.550186314
 C      -25.921124429    12.998446504    14.528369093
 C      -25.431402836    12.010724425    13.663023359
 C      -24.338109919    12.269867241    12.841268872
Si      -27.363260608    12.641351840    15.615385637
 C      -28.055089657    14.199425321    16.372647462
 C      -28.695458567    11.770573139    14.571179235
 C      -26.827680097    11.466683360    17.014111789
 C      -15.779407892    16.967998132     9.200583596
 C      -17.667667663    16.998005635     6.751890875
 C       -2.933432104    13.658089881     0.569001858
 C       -4.656544621    12.853696836    -1.870033944
 C       -0.592897256    -0.933323674    -1.550292347
 C       -0.662393246    -0.897560127     1.542131252
 H        1.222624836     2.731964813    -0.271315517
 H        0.266835093     4.965121688    -0.263414504
 H       -3.676024189     3.321491277     0.260275965
 H       -2.761361988     1.068483199     0.277072202
 H       -3.471606950     5.635958610     0.124662405
 H       -0.624015158     6.793603066    -0.243204005
 H       -0.436176967     9.120795470    -0.368582403
 H       -1.371589514    11.366207037    -0.368675948
 H       -5.341893144     9.661963309     0.164598641
 H       -4.365453460     7.438332241     0.135430481
 H       -6.434335841    13.209975376     0.616220423
 H       -5.188942024    10.950742336     2.376219047
 H       -6.413743498    10.228563528     4.193402041
 H       -8.393205321    10.288602892     5.641161015
 H      -10.148309042    13.293958666     3.072498353
 H       -8.117010800    13.310599458     1.719777937
 H      -12.473593135    12.621611131     5.696251100
 H      -12.141681672    12.431988239     3.953239127
 H      -11.318840330    13.713956445     4.908098161
 H      -13.365086085     7.108452316     5.117263924
 H      -14.739439692     7.825229318     5.985805666
 H      -13.069416099     8.114362570     6.567435836
 H      -14.432664064    11.146485022     3.245075586
 H      -15.429598346    13.285332725     3.972214293
 H      -15.311683029    11.947047928     8.064330233
 H      -14.296621601     9.833619008     7.354231891
 H      -16.230798162    14.711530569     5.597532809
 H      -16.126042206    13.709940848     8.553166588
 H      -18.822252950    13.580809521     8.662421300
 H      -20.721345701    13.153219725    10.116619027
 H      -20.479377351    17.154521125    11.684371860
 H      -18.568028319    17.625146658    10.253957012
 H      -22.153904058    15.756032126    12.511897490
 H      -22.296550602    12.888202722    11.354231075
 H      -23.729812732    15.486665290    13.754781986
 H      -25.629298749    15.055211341    15.204499154
 H      -25.884020954    11.016909210    13.602554857
 H      -23.971525342    11.489705846    12.176784752
 H      -10.231075304    10.259422039     6.687002116
 H      -11.944352215    10.660901586     6.441682910
 H      -10.227542923     9.276846559     4.263424569
 H      -11.069972598     8.372373741     5.515363839
 H      -12.405098971    10.271979067     3.464529556
 H      -12.316007452     8.499995031     3.312096352
 H        2.262991582    -1.030299637     0.027589031
 H        2.263569290     0.532142837     0.882942581
 H        2.273089289     0.489937589    -0.901750340
 H      -28.946920366    13.981354069    16.986992251
 H      -28.359313950    14.918413348    15.590362707
 H      -27.317635672    14.700907022    17.023587935
 H      -28.218914901    10.819598102    14.192963408
 C      -29.949029176    11.381594336    15.374825033
 C      -29.121883350    12.601874669    13.347690548
 H      -27.736114673    11.342984775    17.671984610
 C      -26.403651057    10.071649141    16.521135154
 C      -25.691999992    12.052208993    17.873393342
 H      -16.270526250    17.946220771     9.474974155
 C      -15.344729521    16.273081790    10.503108791
 C      -14.531079892    17.281013779     8.357113931
 H      -16.772351832    17.084672090     6.070423492
 C      -18.801594206    16.308469599     5.971304403
 C      -18.120135344    18.420990114     7.124958973
 H       -2.054925386    13.624802225    -0.137882620
 C       -3.479072750    15.097180597     0.580369305
 C       -2.428246506    13.304310415     1.979253906
 H       -5.093978340    13.892121080    -1.816181701
 C       -3.449384571    12.891977717    -2.823213207
 C       -5.726220754    11.914051332    -2.455302944
 H       -0.062017950    -1.928900197    -1.523719426
 C       -2.107522449    -1.204696771    -1.577484343
 C       -0.198225844    -0.216250177    -2.854560995
 H       -1.787092422    -0.888082827     1.444256849
 C       -0.209441149    -2.364995260     1.641621612
 C       -0.298302538    -0.170188162     2.849223090
 H      -29.732583346    10.725126188    16.227512347
 H      -30.649879861    10.829031524    14.732194552
 H      -30.501907938    12.251280544    15.753934819
 H      -28.281342707    12.873245094    12.692934519
 H      -29.642315441    13.529801235    13.619407832
 H      -29.821504060    12.025690880    12.725571811
 H      -27.192315366     9.546403792    15.967817234
 H      -26.153103150     9.430681359    17.379089259
 H      -25.505929469    10.097718824    15.887525739
 H      -25.945873471    13.014978516    18.335255484
 H      -24.757726455    12.189423401    17.310067270
 H      -25.454475131    11.368005151    18.700624152
 H      -16.182570142    16.051588286    11.179351593
 H      -14.660235033    16.923476074    11.066466296
 H      -14.802206057    15.334106013    10.327624380
 H      -14.752234029    17.853498435     7.447184414
 H      -13.979379124    16.378425377     8.057089101
 H      -13.826721448    17.891772496     8.940224329
 H      -18.550259522    15.294552566     5.631579211
 H      -19.043665338    16.885906988     5.067997993
 H      -19.734223516    16.237607513     6.550009377
 H      -17.332529429    19.018625151     7.601219087
 H      -18.998188141    18.431587126     7.786192480
 H      -18.414974503    18.970385101     6.218873261
 H       -3.789152076    15.453843792    -0.409916157
 H       -2.699606063    15.791479037     0.926044011
 H       -4.329278985    15.225751187     1.265159213
 H       -1.967132429    12.308821635     2.041241770
 H       -3.221602391    13.347916991     2.739864281
 H       -1.657813058    14.021213188     2.295859897
 H       -2.679329234    13.613739796    -2.522484298
 H       -3.774282111    13.191855923    -3.830024068
 H       -2.963772837    11.912251167    -2.938171835
 H       -6.648081785    11.877281008    -1.858922836
 H       -5.367699026    10.881549529    -2.575703203
 H       -6.020526830    12.255293915    -3.457796653
 H       -2.466098743    -1.769413940    -0.707770487
 H       -2.363896878    -1.807865746    -2.460805965
 H       -2.703882278    -0.284842242    -1.653529754
 H        0.882969476    -0.056023009    -2.955257634
 H       -0.690666086     0.760034624    -2.970703056
 H       -0.501411052    -0.818930414    -3.722612230
 H       -0.494994526    -2.968478512     0.770354629
 H       -0.677981849    -2.843918946     2.513722116
 H        0.874810378    -2.469819852     1.780132228
 H       -0.642378351     0.873743025     2.874759514
 H        0.780498523    -0.168255781     3.053667297
 H       -0.774494658    -0.670841132     3.704268814

