187   

Si        0.000000000     0.000000000     0.000000000
 C        1.865236503     0.000000000     0.000000000
 C       -0.676359957     1.712491924     0.000000000
 C        0.143672541     2.812925157     0.268546317
 C       -0.380176260     4.105613961     0.265701118
 C       -1.733623229     4.327626571    -0.001030664
 C       -2.554686080     3.223707206    -0.267515591
 C       -2.034524262     1.932445111    -0.266916964
 C       -2.324670640     5.661783848    -0.014586262
 C       -1.649172125     6.799134500     0.222374871
 C       -2.237507655     8.134324282     0.209476623
 C       -3.591225613     8.359368104    -0.057060090
 C       -4.111402285     9.652921940    -0.059059525
 C       -3.283073460    10.750948353     0.194752688
 C       -1.925937890    10.529938169     0.461469819
 C       -1.412508246     9.235612569     0.472992117
Si       -3.950646297    12.465222145     0.196486846
 C       -2.581457281    13.633918250    -0.119408379
 C       -2.295405438    14.725076213     0.602074947
 C       -1.183217655    15.630517617     0.304671281
 C       -0.978883830    16.745892928     1.132374965
 C        0.058146503    17.630977672     0.893029523
 C        0.950048912    17.405639515    -0.176847031
 C        0.744809636    16.295849088    -1.010425308
 C       -0.323971414    15.436274245    -0.778362516
 N        1.991794134    18.342789336    -0.375206440
 C        2.860469228    18.574561072     0.803749659
 C        2.742919002    18.226435106    -1.636179920
 C        3.102107711    17.358798110     1.713515973
 C        3.791131969    16.189760957     0.986625431
 N        3.649173117    14.903482387     1.691634274
 C        4.209454783    14.806214703     2.976958095
 C        5.363717103    15.549546164     3.306185069
 C        5.920699961    15.457979392     4.571341072
 C        5.388091607    14.594207526     5.538926847
 C        4.264788635    13.834732703     5.200889560
 C        3.684083945    13.925810943     3.942998278
 C        2.329504110    14.280142160     1.492291281
 C        6.015957695    14.537102099     6.859545106
 C        5.594516392    13.751157093     7.859684528
Si        6.376825175    13.677767378     9.510269938
 C        8.179742595    14.035316165     9.435065369
 C        8.917817910    13.646229538     8.309219912
 C       10.282968010    13.908628790     8.235234281
 C       10.947575951    14.552611005     9.287499763
 C       10.210534202    14.931378894    10.412810565
 C        8.841910471    14.674313663    10.488119853
 C       12.379206198    14.805427654     9.162771776
 C       13.132909054    15.416101756    10.092840999
 C       14.564582545    15.668452446     9.967121808
 C       15.301043974    15.289565839     8.841827709
 C       16.668965890    15.550711787     8.763473621
 C       17.332361661    16.191452536     9.814598663
 C       16.596002661    16.571770692    10.944898690
 C       15.229727061    16.315363531    11.017522223
Si       19.137174866    16.543351355     9.726784958
 C       19.948056890    15.623227802     8.321345368
 C       19.409277832    18.409987136     9.472467485
 C       19.923934940    16.037053227    11.384698500
 C        5.505732053    14.921335793    10.657081449
 C        6.131609264    11.925969813    10.210558527
 C       -5.245976061    12.653437471    -1.182931864
 C       -4.782564709    12.807937956     1.870735277
 C       -0.658326963    -0.900000519    -1.542715183
 C       -0.611369358    -0.924820339     1.547004218
 H        1.210264508     2.702664409     0.483332843
 H        0.280118961     4.945055953     0.476372044
 H       -3.611776871     3.374281492    -0.477799401
 H       -2.723215183     1.110679579    -0.482635982
 H       -3.395187196     5.685785601    -0.238062148
 H       -0.578510951     6.773659704     0.445972746
 H       -4.253257231     7.520680296    -0.263913687
 H       -5.178278749     9.767347936    -0.269414993
 H       -1.233482378    11.352472617     0.669491587
 H       -0.356304810     9.081434625     0.686333973
 H       -1.980894530    13.364057745    -1.004837557
 H       -2.876666038    15.026992928     1.482771753
 H       -1.650736760    16.924748995     1.972608207
 H        0.186615335    18.509183867     1.521906111
 H        1.408349856    16.097249556    -1.846449792
 H       -0.476317303    14.590511480    -1.450932905
 H        3.369341074    19.127495043    -1.761302971
 H        2.034370541    18.214973628    -2.483990538
 H        3.390930140    17.339020160    -1.703334698
 H        1.961894504    14.478331491     0.469509372
 H        1.561045977    14.641094042     2.196046354
 H        2.428123721    13.184313674     1.593409466
 H        5.821644290    16.204134724     2.570880287
 H        6.799334569    16.058710973     4.810722271
 H        3.830638712    13.152630035     5.933448934
 H        2.814133429    13.315288476     3.723025800
 H        6.884926243    15.203860068     6.953923715
 H        4.716058487    13.099011954     7.741683764
 H        8.452182699    13.135576864     7.459159838
 H       10.838309469    13.605517587     7.349561845
 H       10.702261957    15.432232473    11.244468928
 H        8.319705587    14.993895378    11.393937122
 H       12.825591871    14.454247213     8.227740802
 H       12.686850920    15.767150952    11.027896905
 H       14.809459106    14.785359094     8.011903722
 H       17.191066846    15.231473362     7.857223104
 H       17.061211904    17.074775490    11.797385243
 H       14.674693800    16.619885853    11.902787875
 H        3.833347959    18.992637370     0.466361166
 H        2.367383694    19.381213198     1.399676582
 H        3.709650041    17.668012103     2.586881733
 H        2.141909361    17.010969483     2.145892915
 H        3.370870174    16.062230178    -0.037099940
 H        4.874529468    16.399959442     0.842831695
 H        2.263213845    -1.029793484    -0.039743498
 H        2.274906541     0.479631458     0.906251243
 H        2.261686454     0.542406251    -0.877589857
 H       21.037446232    15.805433797     8.302183024
 H       19.542484461    15.931430101     7.341816573
 H       19.796250468    14.533066855     8.421539850
 H       20.524976835    18.543824716     9.369804412
 C       18.745220015    18.932784371     8.185412789
 C       18.933949357    19.270956181    10.656593823
 H       19.417701673    16.667483930    12.172535361
 C       19.669518186    14.558598337    11.729964066
 C       21.435683215    16.316503315    11.457860493
 H        5.981791390    14.799158141    11.672448077
 C        5.711682711    16.377426055    10.202407711
 C        3.997123951    14.654005312    10.805825189
 H        5.016675146    11.758133631    10.247983105
 C        6.747583449    10.844948922     9.304347827
 C        6.688095377    11.760938531    11.635553634
 H       -6.074854638    11.929960062    -0.931291939
 C       -5.851611566    14.066352034    -1.250508058
 C       -4.692146774    12.277133690    -2.568746627
 H       -5.072910495    13.898468350     1.857032852
 C       -6.058566824    11.978060400     2.098016642
 C       -3.827418802    12.580850727     3.057234967
 H       -1.783042686    -0.897390480    -1.445720483
 C       -0.297162221    -0.170939434    -2.849547771
 C       -0.198137237    -2.365334374    -1.642079186
 H       -0.113493412    -1.936949470     1.513086769
 C       -0.190523041    -0.229464135     2.854806320
 C       -2.134545672    -1.144603694     1.574113917
 H       19.091776397    18.423364178     7.277106219
 H       18.978120328    19.998394532     8.047438054
 H       17.648443059    18.858502000     8.210470131
 H       19.422952064    19.015655036    11.605174476
 H       17.847033703    19.219842016    10.811727547
 H       19.165930058    20.329287368    10.467722833
 H       18.602024733    14.296218056    11.753289551
 H       20.063065246    14.331893287    12.731099484
 H       20.165373657    13.864495508    11.038579716
 H       21.691428760    17.370935985    11.291756623
 H       22.017139195    15.715033430    10.746641816
 H       21.816222519    16.062018843    12.457810494
 H        6.769118139    16.667113982    10.129207273
 H        5.252226318    17.067363862    10.923843920
 H        5.243863305    16.590709740     9.230179333
 H        3.768246403    13.656620103    11.202169658
 H        3.447287517    14.774692254     9.861830540
 H        3.556096890    15.372664149    11.511420590
 H        6.357828162    10.862288629     8.277271204
 H        6.522633223     9.845545072     9.702730487
 H        7.843493820    10.911866596     9.244494452
 H        6.224237060    12.436681905    12.365265659
 H        7.776640407    11.905862477    11.689600837
 H        6.497509656    10.740437276    11.998033657
 H       -6.347018070    14.372986064    -0.320253725
 H       -6.619696346    14.109451084    -2.036024740
 H       -5.110812088    14.838519837    -1.503186909
 H       -4.275978124    11.260616000    -2.610476057
 H       -3.915294738    12.968966362    -2.921966310
 H       -5.496671748    12.309686800    -3.317284459
 H       -6.837173141    12.161176306     1.346591530
 H       -6.505333791    12.234656600     3.069755144
 H       -5.866656816    10.896101233     2.127467780
 H       -2.901283325    13.168440722     2.996087147
 H       -3.539564350    11.526055311     3.175293813
 H       -4.317361952    12.872446993     3.996892062
 H       -0.645441061     0.871578255    -2.875244111
 H       -0.770450679    -0.673519400    -3.705054993
 H        0.781783180    -0.164179972    -3.053458812
 H       -0.485391908    -2.971169010    -0.773015317
 H        0.887145096    -2.465367893    -1.775765406
 H       -0.660390404    -2.845110834    -2.517032272
 H        0.895582711    -0.105780289     2.953859229
 H       -0.511366031    -0.827863255     3.719557041
 H       -0.650819949     0.761362887     2.978825605
 H       -2.509389004    -1.707664036     0.710137117
 H       -2.700136656    -0.204265711     1.636202185
 H       -2.413523115    -1.727927208     2.463798910

