187   

Si        0.000000000     0.000000000     0.000000000
 C        1.865187984     0.000000000     0.000000000
 C       -0.680663738     1.710235183     0.000000000
 C        0.114560009     2.803784188    -0.357055971
 C       -0.412144182     4.095423217    -0.353388255
 C       -1.744408434     4.322648891     0.001077893
 C       -2.541340078     3.225152487     0.353872127
 C       -2.018505123     1.935085984     0.351813665
 C       -2.339680881     5.654582179     0.019741517
 C       -1.691726604     6.789344316    -0.294059798
 C       -2.292748464     8.119024563    -0.273499279
 C       -1.502954361     9.222262447    -0.624206275
 C       -2.034333862    10.509354307    -0.618687740
 C       -3.373702489    10.721750221    -0.268697706
 C       -4.164441569     9.622579252     0.082090812
 C       -3.626577114     8.336149925     0.082943996
Si       -4.085402140    12.417971922    -0.258242940
 C       -5.909568246    12.319730664    -0.312647492
 C       -6.756805696    12.957767193     0.505251606
 C       -8.214351459    12.848061766     0.423291455
 C       -9.001943333    13.564375411     1.335547341
 C      -10.385158882    13.494225287     1.299650772
 C      -11.038014899    12.733958035     0.305624772
 C      -10.247416831    12.015237292    -0.611023620
 C       -8.861432546    12.059133224    -0.531548506
 N      -12.443899306    12.669847887     0.278800640
 C      -13.177469143    13.865220401     0.732050619
 C      -13.060174232    12.043739947    -0.903624140
 C      -12.932449486    15.094284160    -0.157974310
 C      -13.686298997    16.316665530     0.390063062
 N      -13.656415190    17.472605410    -0.523965978
 C      -14.281728020    17.315963283    -1.775418790
 C      -15.381140454    16.442255539    -1.916568695
 C      -16.000564522    16.284076737    -3.145870655
 C      -15.589355026    17.019728056    -4.266071542
 C      -14.520912083    17.908292060    -4.117819502
 C      -13.877371671    18.065170489    -2.897180487
 C      -12.357660824    18.168134472    -0.513626361
 C      -16.278680973    16.813171498    -5.540371050
 C      -15.973589872    17.457760239    -6.674783529
Si      -16.832663333    17.202116675    -8.268339711
 C      -18.593045750    16.719896644    -8.039691461
 C      -19.306845088    17.184138328    -6.928830081
 C      -20.641298525    16.826102410    -6.743914925
 C      -21.296381229    16.009434889    -7.669903473
 C      -20.582916377    15.553831742    -8.786181741
 C      -19.248271838    15.906039518    -8.971618327
 C      -22.691242008    15.608980738    -7.518199677
 C      -23.486208964    15.974352864    -6.498166467
 C      -24.881023854    15.573303096    -6.347425126
 C      -25.533550035    14.753299220    -7.271472441
 C      -26.868831973    14.393959173    -7.088488031
 C      -27.579715312    14.842982617    -5.971227533
 C      -26.927193209    15.665049239    -5.042232452
 C      -25.596126581    16.026402720    -5.230532089
Si      -29.342280177    14.378228838    -5.714442179
 C      -29.869933928    13.016727574    -6.875336466
 C      -29.552122558    13.819625922    -3.906834482
 C      -30.451453953    15.896194853    -6.012207111
 C      -16.770800363    18.831086471    -9.248970599
 C      -15.910401845    15.860898216    -9.253598342
 C       -3.490055740    13.336587655     1.296598162
 C       -3.484817471    13.363702321    -1.796523240
 C       -0.618030651    -0.919784212    -1.547539243
 C       -0.652395276    -0.909760291     1.540066593
 H        1.163740518     2.688648328    -0.642750795
 H        0.228667037     4.929949293    -0.631980298
 H       -3.581960128     3.380080185     0.632893562
 H       -2.688482499     1.118699868     0.635907477
 H       -3.392329184     5.679854730     0.317588778
 H       -0.639661963     6.766196832    -0.591982502
 H       -0.461795752     9.074485867    -0.903882273
 H       -1.370852856    11.331833932    -0.899264913
 H       -5.216167345     9.731056014     0.367507186
 H       -4.260631493     7.496939277     0.363332691
 H       -6.283835508    11.668976669    -1.120940952
 H       -6.418323161    13.618670758     1.313827913
 H       -8.520813994    14.179484463     2.096683952
 H      -10.962794611    14.034348175     2.044014278
 H      -10.706731586    11.411990629    -1.387684208
 H       -8.273845636    11.477801834    -1.244523310
 H      -14.158888520    12.053759430    -0.804637247
 H      -12.754771778    10.982878146    -0.953217724
 H      -12.794214592    12.538357961    -1.852516478
 H      -11.953796564    18.200275939     0.512170564
 H      -12.505420714    19.216401025    -0.830558313
 H      -11.604239672    17.698544921    -1.167456499
 H      -15.747609461    15.878508688    -1.063843354
 H      -16.832876248    15.584485772    -3.236183433
 H      -14.180340545    18.494750016    -4.972626844
 H      -13.052866704    18.767435832    -2.827711373
 H      -17.088392384    16.072055306    -5.478230958
 H      -15.151296701    18.188419394    -6.711979852
 H      -18.848305012    17.832545746    -6.174101156
 H      -21.172697060    17.193998575    -5.868022372
 H      -21.074746088    14.918020569    -9.519652526
 H      -18.744090188    15.521060616    -9.862082567
 H      -23.071717893    14.965924058    -8.317140860
 H      -23.106193298    16.618266663    -5.699414882
 H      -25.001959808    14.387235911    -8.147909601
 H      -27.325288496    13.751110178    -7.846170664
 H      -27.432181138    16.045362170    -4.149712307
 H      -25.106958125    16.666862654    -4.498935338
 H      -14.262823065    13.616333529     0.762305512
 H      -12.890784099    14.079071085     1.786687838
 H      -11.848454852    15.308774661    -0.224924595
 H      -13.253183822    14.882262282    -1.197042319
 H      -14.750506191    16.063394568     0.601296860
 H      -13.256575730    16.632555465     1.367649891
 H        2.262977992    -1.029023803     0.056191735
 H        2.260564019     0.556733307     0.869142932
 H        2.275404771     0.465568756    -0.913135960
 H      -30.915610800    12.715137266    -6.685803084
 H      -29.237889996    12.119246283    -6.747363343
 H      -29.800842959    13.330268541    -7.931749558
 H      -29.256796267    14.705915942    -3.272960772
 C      -30.999456433    13.442403181    -3.544461977
 C      -28.621807874    12.648955408    -3.540619798
 H      -31.511063454    15.525011919    -5.899015890
 C      -30.233731752    17.031315587    -4.995844268
 C      -30.296034494    16.470168982    -7.432530859
 H      -15.677592960    19.080553121    -9.372516009
 C      -17.397120390    18.717963338   -10.649649077
 C      -17.443149627    19.990783595    -8.492272621
 H      -16.431130229    15.791827772   -10.252030891
 C      -14.433307705    16.207343932    -9.512674794
 C      -15.988248488    14.481150211    -8.575849176
 H       -4.038509528    14.322868533     1.302370225
 C       -3.841448174    12.583383791     2.592725648
 C       -1.979732165    13.633068258     1.292220099
 H       -2.361825717    13.424665976    -1.705817222
 C       -3.815790990    12.627598198    -3.106947999
 C       -4.035458632    14.798535686    -1.873092804
 H       -0.133570083    -1.938153937    -1.512085280
 C       -2.144155020    -1.118606142    -1.573958228
 C       -0.187459285    -0.231553539    -2.855791316
 H       -1.777037598    -0.916799722     1.442422366
 C       -0.179759067    -2.371312217     1.636087671
 C       -0.298303744    -0.180986119     2.849021356
 H      -31.716186373    14.256789401    -3.711640412
 H      -31.065102198    13.190224016    -2.475995639
 H      -31.361635310    12.560889551    -4.089855476
 H      -27.559167710    12.867256987    -3.719428443
 H      -28.864245155    11.723060962    -4.078723154
 H      -28.711317614    12.416830567    -2.469818536
 H      -30.397058922    16.723254796    -3.955443258
 H      -30.944742462    17.848115768    -5.188208390
 H      -29.231337278    17.477168391    -5.063241889
 H      -30.517171848    15.742763378    -8.224104631
 H      -29.290891355    16.873389232    -7.622730063
 H      -30.995316673    17.305776006    -7.579633748
 H      -16.905733467    17.972997194   -11.288234621
 H      -17.312310172    19.678465048   -11.178414802
 H      -18.470036571    18.479251698   -10.620963042
 H      -17.009637112    20.173870432    -7.499508307
 H      -18.524905966    19.844252849    -8.359825019
 H      -17.327553217    20.926826977    -9.056777112
 H      -14.295910947    17.144969764   -10.066080917
 H      -13.964716293    15.420880691   -10.121781128
 H      -13.841368171    16.272567071    -8.588864785
 H      -17.017363684    14.134459966    -8.407734476
 H      -15.468091827    14.451625753    -7.607388374
 H      -15.506847911    13.721846751    -9.207865009
 H       -4.913229282    12.366627170     2.699083671
 H       -3.559187082    13.185178200     3.467886418
 H       -3.303794839    11.628862476     2.689214851
 H       -1.659582300    14.253688056     0.445766144
 H       -1.364824608    12.722010462     1.294196657
 H       -1.703728013    14.188565953     2.200424044
 H       -3.417008295    11.603921529    -3.144094322
 H       -3.372798987    13.160005359    -3.960591640
 H       -4.894860963    12.571128001    -3.305595656
 H       -3.761375575    15.416609040    -1.008507030
 H       -5.129945114    14.832018984    -1.972487048
 H       -3.630885793    15.310422718    -2.757897397
 H       -2.524237898    -1.688715250    -0.716854942
 H       -2.433347533    -1.685459269    -2.470927561
 H       -2.697657092    -0.170025094    -1.620767343
 H        0.900303892    -0.124516717    -2.955222931
 H       -0.633225286     0.765867810    -2.980191641
 H       -0.517571946    -0.825435660    -3.720160042
 H       -0.457202566    -2.976540897     0.763461551
 H       -0.642178372    -2.858499993     2.506908407
 H        0.905693489    -2.462200784     1.774814655
 H       -0.655115542     0.858606756     2.877139244
 H        0.780420095    -0.165592458     3.053673191
 H       -0.767855608    -0.689862425     3.702878521

