187   

Si        0.000000000     0.000000000     0.000000000
 C        1.865584909     0.000000000     0.000000000
 C       -0.672504289     1.713793435     0.000000000
 C        0.155574929     2.812579510     0.250241555
 C       -0.363373613     4.107085171     0.248060445
 C       -1.720345996     4.332726013     0.002800365
 C       -2.549428919     3.230474859    -0.244962920
 C       -2.033793230     1.937326336    -0.247098555
 C       -2.305590968     5.669422925    -0.008999913
 C       -1.620639851     6.804812651     0.209526886
 C       -2.202455902     8.142799251     0.198487379
 C       -1.367873132     9.241290783     0.443147496
 C       -1.877254070    10.537230383     0.442925005
 C       -3.233706793    10.766895376     0.182158746
 C       -4.068651577     9.671274868    -0.063360366
 C       -3.558620404     8.373890322    -0.048535657
Si       -3.925178616    12.472038536     0.177490354
 C       -5.327393687    12.647927432    -0.982679711
 C       -5.456256617    11.933993656    -2.109323488
 C       -6.571616811    12.062140080    -3.048585019
 C       -6.583219684    11.250937010    -4.193555703
 C       -7.612846340    11.329344387    -5.116348807
 C       -8.652704016    12.267825702    -4.945680839
 C       -8.639535721    13.086057713    -3.802320680
 C       -7.619976255    12.966582031    -2.864748054
 N       -9.686944033    12.320649067    -5.905888332
 C       -9.261276762    12.246100160    -7.320292229
 C      -10.742672522    13.318023792    -5.666123212
 C       -8.084520607    13.177068526    -7.669411522
 C       -8.239770606    13.924333695    -9.004975573
 N       -9.358427493    14.887774899    -9.103368286
 C       -9.640395971    15.657949168    -7.961762997
 C       -8.565439740    16.175790559    -7.204651885
 C       -8.809899567    16.937134903    -6.076418683
 C      -10.119628020    17.273274397    -5.698961119
 C      -11.179489559    16.799337527    -6.472549658
 C      -10.952249436    16.010327349    -7.595002164
 C      -10.509736396    14.376839270    -9.863791310
 C      -10.305832729    18.080765789    -4.495005962
 C      -11.490378589    18.479114651    -4.010786081
Si      -11.601514258    19.491501543    -2.489054180
 C      -10.167277683    19.046528539    -1.422400208
 C       -9.908258306    17.683483812    -1.211451064
 C       -8.840401664    17.283046213    -0.416289870
 C       -8.005663234    18.232574215     0.189913867
 C       -8.265333716    19.588174383    -0.021294349
 C       -9.335621848    19.993119896    -0.820797772
 C       -6.901312463    17.755020162     1.013021989
 C       -6.018297669    18.538855733     1.654597008
 C       -4.921851820    18.030544668     2.472298970
 C       -4.704029541    16.661762451     2.652760843
 C       -3.648786214    16.205571099     3.439265802
 C       -2.776622863    17.110306831     4.054570842
 C       -2.986706512    18.481701209     3.867925687
 C       -4.045296679    18.935256241     3.083575516
Si       -1.394364872    16.466754852     5.086056396
 C       -1.919535468    14.938058605     6.016666222
 C        0.047023935    16.030653351     3.918938376
 C       -0.803022394    17.806344054     6.299274836
 C      -11.571038386    21.336788189    -2.945067685
 C      -13.230211059    19.113674982    -1.586825242
 C       -4.554925729    12.833055547     1.938737033
 C       -2.570831714    13.737107336    -0.249830255
 C       -0.659495094    -0.897187047    -1.543716162
 C       -0.611188065    -0.925796339     1.546538420
 H        1.224709718     2.699535366     0.450016793
 H        0.303381421     4.945256275     0.442270466
 H       -3.609414324     3.384029074    -0.438620390
 H       -2.728303926     1.117112489    -0.449389233
 H       -3.379783682     5.697651812    -0.213894379
 H       -0.546479482     6.775500959     0.414834204
 H       -0.309169815     9.082763738     0.638383885
 H       -1.178877112    11.353700477     0.646602054
 H       -5.137857566     9.791258198    -0.269665203
 H       -4.229808749     7.537847324    -0.236927729
 H       -6.069904810    13.410266693    -0.701794805
 H       -4.721162739    11.176490425    -2.417963396
 H       -5.776184084    10.535369873    -4.355106314
 H       -7.618750569    10.664374062    -5.975060278
 H       -9.416404849    13.827748447    -3.638613594
 H       -7.636550036    13.608096560    -1.982417852
 H      -11.520041760    13.234731728    -6.442639478
 H      -10.375936330    14.360519419    -5.661446263
 H      -11.230230627    13.103977347    -4.698179122
 H      -10.156289381    13.866994537   -10.776248520
 H      -11.127244201    15.230383007   -10.201091513
 H      -11.148513179    13.679803742    -9.298343361
 H       -7.540853644    15.980864518    -7.511744930
 H       -7.967474606    17.299273350    -5.483372983
 H      -12.205385347    17.053008409    -6.202561249
 H      -11.803409803    15.662746490    -8.169914810
 H       -9.352187539    18.328279833    -4.001024787
 H      -12.437006275    18.237134850    -4.509045128
 H      -10.522129742    16.898247694    -1.667365450
 H       -8.651609401    16.221129909    -0.266540589
 H       -7.630978276    20.343714420     0.438021615
 H       -9.492229729    21.067349252    -0.948241243
 H       -6.826797749    16.664015687     1.081957328
 H       -6.083829806    19.627513697     1.591874196
 H       -5.374806086    15.938199820     2.189719885
 H       -3.536864952    15.122006718     3.554699602
 H       -2.336908468    19.234501165     4.321965847
 H       -4.191989083    20.005100692     2.950207638
 H       -8.988641488    11.185690589    -7.527898501
 H      -10.139328052    12.459920032    -7.966051021
 H       -7.931285156    13.901450474    -6.841577191
 H       -7.142831635    12.594136175    -7.694989621
 H       -7.306139242    14.508477120    -9.201449357
 H       -8.318136429    13.189541128    -9.835869133
 H        2.263744957    -1.029491725    -0.043851517
 H        2.274479709     0.475954111     0.908501038
 H        2.261869116     0.546021102    -0.875305885
 H       -1.108093187    14.570805194     6.669865219
 H       -2.197421376    14.114456415     5.335417548
 H       -2.793415635    15.150125667     6.659663488
 H        0.873685148    15.643267042     4.581172487
 C       -0.312317649    14.925687367     2.908721003
 C        0.582309916    17.249851153     3.146725465
 H       -0.506294925    18.691916881     5.665057016
 C       -1.912923417    18.263742845     7.263336244
 C        0.429090132    17.387030760     7.121685862
 H      -11.530896204    21.897420769    -1.966479652
 C      -10.328688249    21.718567833    -3.770423868
 C      -12.828529609    21.798322923    -3.703826793
 H      -14.052759703    19.412822276    -2.299629131
 C      -13.404305460    17.618484676    -1.264630998
 C      -13.400804905    19.926020479    -0.290983960
 H       -4.772143494    13.939385404     1.972737622
 C       -5.857929553    12.082869650     2.266491878
 C       -3.510938412    12.508385414     3.021681515
 H       -1.775041478    13.622597691     0.542862982
 C       -1.926335175    13.451849214    -1.618643677
 C       -3.055350924    15.196610316    -0.223052250
 H       -1.784471280    -0.887100362    -1.449587753
 C       -0.290720606    -0.170780593    -2.849981787
 C       -0.208036667    -2.365272937    -1.641276762
 H       -0.109880706    -1.936264032     1.513557862
 C       -0.193991815    -0.228631539     2.854569666
 C       -2.133593362    -1.150620855     1.572011785
 H       -0.588015300    13.976556019     3.386642324
 H        0.553829693    14.705879738     2.267928118
 H       -1.128379999    15.215670576     2.229336715
 H        0.952844080    18.050893706     3.798903593
 H       -0.164686349    17.688508707     2.469633279
 H        1.432087663    16.952861737     2.515215419
 H       -2.818220152    18.618920924     6.751380740
 H       -1.556955646    19.103591584     7.877117580
 H       -2.219635643    17.476908622     7.965710694
 H        1.297210928    17.127847275     6.501865377
 H        0.230630985    16.539356194     7.790837688
 H        0.750324596    18.218101378     7.766561193
 H       -9.378850921    21.464782777    -3.280633470
 H      -10.307324039    22.804045029    -3.940841021
 H      -10.319015007    21.249552781    -4.765495561
 H      -13.757521281    21.650540603    -3.138638877
 H      -12.945749575    21.304863715    -4.678480999
 H      -12.766226858    22.876351485    -3.912364412
 H      -13.328759128    16.969176127    -2.147255137
 H      -14.400551613    17.440485059    -0.835077286
 H      -12.681643431    17.256522640    -0.519422152
 H      -13.378948401    21.011805807    -0.450439877
 H      -12.642532958    19.685507791     0.468011907
 H      -14.374691323    19.702584125     0.168175607
 H       -6.678768280    12.307050397     1.572106826
 H       -6.214037439    12.364607538     3.267750969
 H       -5.730731711    10.991373489     2.283733870
 H       -2.567460971    13.056939328     2.899227893
 H       -3.264144393    11.437525616     3.067669652
 H       -3.902690248    12.771255669     4.015185521
 H       -1.501349302    12.442465071    -1.702688873
 H       -1.097279294    14.150682790    -1.798744351
 H       -2.627285528    13.584583452    -2.455416103
 H       -3.408179092    15.521861702     0.765431920
 H       -3.854241833    15.401489189    -0.948875927
 H       -2.228416768    15.873961571    -0.481317973
 H       -0.633411555     0.873591728    -2.876911469
 H       -0.764561836    -0.671141266    -3.706448703
 H        0.788719094    -0.169957463    -3.050981643
 H       -0.504209300    -2.969631967    -0.774152201
 H        0.877308681    -2.472294032    -1.768697874
 H       -0.668295172    -2.841655275    -2.519150517
 H        0.891958962    -0.106650641     2.957011277
 H       -0.518970606    -0.824685206     3.719375934
 H       -0.652986087     0.763287596     2.975027354
 H       -2.505512651    -1.716162099     0.708392512
 H       -2.702467544    -0.212109401     1.632202973
 H       -2.411709627    -1.733566076     2.462252760

