187   

Si        0.000000000     0.000000000     0.000000000
 C        1.865535662     0.000000000     0.000000000
 C       -0.679887469     1.710545845     0.000000000
 C        0.148094651     2.819297127    -0.200925893
 C       -0.381150557     4.109869684    -0.198346963
 C       -1.748390777     4.321135737    -0.002965868
 C       -2.577304558     3.208729329     0.195960479
 C       -2.051413766     1.919922533     0.199145656
 C       -2.346200798     5.652165096     0.007606434
 C       -1.665869919     6.798137674    -0.165221793
 C       -2.263889293     8.129165902    -0.154617551
 C       -3.632203112     8.338270427     0.041057616
 C       -4.162156691     9.627709541     0.043812886
 C       -3.329145484    10.737410421    -0.134228108
 C       -1.957554117    10.532536391    -0.328064164
 C       -1.434009888     9.242178523    -0.342808159
Si       -4.017889102    12.441351832    -0.132206177
 C       -2.719429177    13.643836735     0.318088333
 C       -2.402600498    14.768437323    -0.336607673
 C       -1.341793246    15.682546615     0.094086464
 C       -1.082946663    16.838059951    -0.658544843
 C       -0.087513785    17.724188006    -0.280473187
 C        0.716367852    17.460845110     0.845477265
 C        0.460821696    16.304817616     1.598569444
 C       -0.567659679    15.443645342     1.231730460
 N        1.724899869    18.401890743     1.192262994
 C        2.689893353    18.667230228     0.097406210
 C        2.378610152    18.171707867     2.492533010
 C        3.545424100    19.918075555     0.358606491
 C        2.714952482    21.217378887     0.375177300
 N        2.198394835    21.654243502    -0.933536896
 C        0.910667190    21.202526890    -1.288607948
 C       -0.141449315    21.372084062    -0.362465292
 C       -1.419705566    20.942685028    -0.672032549
 C       -1.710997530    20.382248710    -1.926539838
 C       -0.675421652    20.246262998    -2.852364260
 C        0.619523877    20.653789935    -2.548573305
 C        3.209366009    21.697813568    -1.998000619
 C       -3.080682705    19.945116233    -2.199433349
 C       -3.475613530    19.397713150    -3.356574578
Si       -5.181339988    18.847394183    -3.711622304
 C       -6.451413595    19.824464825    -2.810629004
 C       -6.200379145    21.156519853    -2.458437529
 C       -7.160685330    21.898898186    -1.775937989
 C       -8.398578161    21.334934772    -1.441096821
 C       -8.649903184    20.008308795    -1.802549958
 C       -7.689213933    19.260959667    -2.482242091
 C       -9.372761299    22.152479942    -0.725646635
 C      -10.590605637    21.732199012    -0.343458311
 C      -11.565387514    22.548958163     0.371974013
 C      -11.316826128    23.875239968     0.734510920
 C      -12.277907025    24.619819311     1.418331097
 C      -13.513547790    24.054573417     1.748353824
 C      -13.765798926    22.724751927     1.384662927
 C      -12.802542652    21.982343047     0.707463882
Si      -14.792989106    25.023038847     2.650482861
 C      -14.373003059    26.839994100     2.696636553
 C      -16.464779046    24.755949131     1.780259237
 C      -14.931381908    24.383070644     4.437857849
 C       -5.488086300    18.986871734    -5.581515453
 C       -5.308296929    17.017990174    -3.199528325
 C       -4.725501326    12.797602492    -1.860823363
 C       -5.412265307    12.604278841     1.151397399
 C       -0.601907076    -0.928907678    -1.548926805
 C       -0.661475545    -0.898047381     1.542327079
 H        1.224919514     2.717161973    -0.361276456
 H        0.285640242     4.956210247    -0.353006023
 H       -3.645076646     3.351171595     0.351157834
 H       -2.746367313     1.091563440     0.363686470
 H       -3.427723749     5.666342949     0.171211787
 H       -0.584307504     6.783994735    -0.329073183
 H       -4.298119826     7.490582087     0.190480478
 H       -5.240244937     9.729681358     0.195264904
 H       -1.261711870    11.365683526    -0.472908807
 H       -0.366290046     9.100201171    -0.499018081
 H       -2.186774658    13.360082739     1.242896492
 H       -2.910578909    15.090730874    -1.255391059
 H       -1.684371614    17.059362206    -1.542421868
 H        0.067106859    18.639606992    -0.853273791
 H        1.061086399    16.061124970     2.469054587
 H       -0.753595549    14.559042591     1.842265707
 H        2.961530254    19.067167700     2.767485807
 H        3.047925463    17.297952037     2.511176293
 H        1.607039883    18.052088214     3.274323119
 H        4.117848729    22.195183551    -1.617030114
 H        2.828598615    22.316078728    -2.831684476
 H        3.490789405    20.708703259    -2.393793648
 H        0.057645791    21.829064904     0.604430412
 H       -2.214159308    21.052045387     0.067960927
 H       -0.874099162    19.813389608    -3.833299932
 H        1.399617596    20.522700164    -3.290476923
 H       -3.764848548    20.110109930    -1.354672184
 H       -2.765764705    19.233885375    -4.181645070
 H       -5.254047599    21.651916187    -2.700892754
 H       -6.944832543    22.930536240    -1.503823089
 H       -9.603842295    19.546502692    -1.555397491
 H       -7.944287640    18.229141283    -2.739238406
 H       -9.042100268    23.172340080    -0.507820396
 H      -10.920980411    20.712397283    -0.561386415
 H      -10.364705069    24.340281266     0.485446277
 H      -12.025007380    25.651930522     1.676458570
 H      -14.713957008    22.230736529     1.615087873
 H      -13.016247412    20.950631799     0.434911715
 H        3.356692559    17.791084739    -0.068141995
 H        2.117084945    18.816472689    -0.848677108
 H        4.084345635    19.826639894     1.320498893
 H        4.336838633    19.974573338    -0.412145500
 H        1.867546590    21.089382009     1.090594864
 H        3.340432386    22.052380979     0.768160195
 H        2.263169440    -1.029948371     0.037705394
 H        2.262783436     0.540744241     0.878128108
 H        2.273862372     0.481148707    -0.906043000
 H      -15.167499316    27.419313646     3.200126751
 H      -14.262653547    27.247118693     1.675103103
 H      -13.429806422    27.028459079     3.238781737
 H      -16.667523145    23.646724677     1.834566850
 C      -17.636400200    25.482971991     2.463889999
 C      -16.425483139    25.154488967     0.293827649
 H      -15.679469795    25.058281687     4.945557363
 C      -15.449998319    22.937476445     4.538977101
 C      -13.599883719    24.483580179     5.204640916
 H       -4.702465119    18.347470847    -6.077990134
 C       -6.869832175    18.462531797    -6.009682927
 C       -5.321279881    20.430051345    -6.090336524
 H       -6.313271849    16.657026671    -3.560922140
 C       -4.223185790    16.141911931    -3.848398571
 C       -5.254281799    16.844005796    -1.672308748
 H       -4.996389464    13.894471728    -1.867380431
 C       -3.687559013    12.547833782    -2.970437702
 C       -5.998264987    11.996152921    -2.183841342
 H       -6.258606988    11.954954254     0.786164078
 C       -4.995111049    12.101450275     2.545000386
 C       -5.930386036    14.048390878     1.274163110
 H       -0.087102326    -1.932693370    -1.518838137
 C       -2.120910039    -1.175028964    -1.576333670
 C       -0.194181697    -0.222161051    -2.854794021
 H       -1.786256717    -0.888869476     1.445626059
 C       -0.208436562    -2.365561807     1.640593909
 C       -0.296224247    -0.171323813     2.849411633
 H      -17.773758327    25.194670716     3.514057539
 H      -18.578988591    25.238676426     1.952704200
 H      -17.542273091    26.576357845     2.426624873
 H      -15.645742452    24.628651087    -0.275717541
 H      -16.276338239    26.231657932     0.141663068
 H      -17.380347635    24.903130133    -0.189407908
 H      -16.438491541    22.795831082     4.084180924
 H      -15.555170364    22.649792992     5.595311498
 H      -14.763375313    22.205659039     4.090625165
 H      -13.199422298    25.504384801     5.252537630
 H      -12.815400573    23.837917549     4.784156802
 H      -13.739349067    24.159364084     6.245896732
 H       -7.028826083    17.404205029    -5.767124640
 H       -6.982681718    18.547052497    -7.100344231
 H       -7.699959601    19.035423840    -5.571821701
 H       -4.334496240    20.859783047    -5.870166436
 H       -6.079414276    21.115785366    -5.685011058
 H       -5.433799594    20.460297616    -7.183380365
 H       -4.239067567    16.167644444    -4.945107797
 H       -4.373289579    15.088324125    -3.567853388
 H       -3.207051039    16.406977204    -3.523257376
 H       -6.018034298    17.424675534    -1.135958610
 H       -4.277925515    17.118576025    -1.246164016
 H       -5.429098236    15.792931145    -1.402098342
 H       -2.771209419    13.143371375    -2.854422890
 H       -4.108853360    12.808782786    -3.951460927
 H       -3.385410359    11.492529162    -3.041792674
 H       -6.827234584    12.198175141    -1.493725625
 H       -5.829070514    10.910269979    -2.198066675
 H       -6.364407038    12.260767073    -3.186550085
 H       -4.640698248    11.061164512     2.546083012
 H       -5.854603991    12.133077029     3.229608868
 H       -4.211673092    12.718620076     3.006206750
 H       -6.345976233    14.443300155     0.337931922
 H       -5.156126730    14.751007850     1.619457993
 H       -6.741763133    14.097016671     2.014082340
 H       -2.487544202    -1.739499893    -0.709760716
 H       -2.388389933    -1.768057140    -2.463163818
 H       -2.702305600    -0.244950227    -1.645152144
 H        0.889644253    -0.080790898    -2.955062019
 H       -0.670038854     0.761930457    -2.974081258
 H       -0.506943331    -0.821975183    -3.721452189
 H       -0.496275284    -2.968897536     0.769989556
 H       -0.675016908    -2.844500108     2.513764632
 H        0.876085523    -2.470708371     1.776583570
 H       -0.640160407     0.872656536     2.875816075
 H        0.782761339    -0.169421676     3.052871626
 H       -0.771562984    -0.672360571     3.704722499

