187   

Si        0.000000000     0.000000000     0.000000000
 C        1.864493041     0.000000000     0.000000000
 C       -0.685566926     1.708666677     0.000000000
 C        0.063179862     2.780162475     0.497587067
 C       -0.460907253     4.072369048     0.495216145
 C       -1.754274325     4.318106818     0.026537860
 C       -2.509164416     3.241393266    -0.456501198
 C       -1.982923012     1.952628659    -0.469911171
 C       -2.342168651     5.653277299     0.005894810
 C       -1.717113268     6.765960726     0.426042688
 C       -2.296877323     8.104006172     0.409040815
 C       -3.588662481     8.363578822    -0.056841413
 C       -4.100131535     9.661186801    -0.053413545
 C       -3.329265313    10.726570049     0.421828231
 C       -2.033724341    10.468672611     0.890142180
 C       -1.524823394     9.173618858     0.881558725
Si       -3.969887886    12.450344741     0.441785220
 C       -3.190461216    13.439989995     1.764294036
 C       -2.740711350    12.958552879     2.931358337
 C       -2.121071117    13.787099826     3.966709548
 C       -1.682897152    13.184943935     5.154822599
 C       -1.091783239    13.935015132     6.157988734
 C       -0.850913329    15.313414616     5.981003375
 C       -1.282768364    15.915811178     4.784665024
 C       -1.927747162    15.162080434     3.812147963
 N       -0.249172372    16.067781706     7.007221854
 C        0.702624276    15.375744100     7.891729042
 C        0.187266875    17.430992542     6.660314016
 C        1.987355430    14.908442893     7.180999043
 C        2.876207504    14.074385891     8.125092587
 N        3.043629243    12.661864209     7.720168660
 C        1.840144336    11.933474756     7.565476440
 C        0.851136151    12.042377252     8.565022094
 C       -0.339629138    11.344301666     8.447980115
 C       -0.548960705    10.442888893     7.394131528
 C        0.448741605    10.305796647     6.426511495
 C        1.625077011    11.043009944     6.500185505
 C        4.042014134    12.506712439     6.647479525
 C       -1.827101519     9.734382559     7.322629953
 C       -2.151598820     8.850536183     6.370358551
Si       -3.750452746     7.968385372     6.286402615
 C       -3.530062231     6.157575532     6.073829825
 C       -2.377244793     5.531225757     6.564320027
 C       -2.200563412     4.158857068     6.408273328
 C       -3.178981972     3.376774056     5.780432773
 C       -4.332205931     4.003713951     5.300358083
 C       -4.506491046     5.379878292     5.442873150
 C       -2.946203939     1.942985809     5.641468415
 C       -3.791296080     1.080840710     5.051212511
 C       -3.549989725    -0.351924313     4.916819567
 C       -2.392910622    -0.968085795     5.400822027
 C       -2.199173901    -2.341561611     5.252657893
 C       -3.157073431    -3.129426967     4.607237516
 C       -4.319348384    -2.514504348     4.121417220
 C       -4.514202948    -1.144990796     4.279652757
Si       -2.914619528    -4.943221775     4.404553026
 C       -1.213364934    -5.470459656     4.960153061
 C       -4.207869511    -5.886636100     5.433198740
 C       -3.159940867    -5.364709127     2.563885218
 C       -4.792124634     8.271713665     7.848375460
 C       -4.677817345     8.701567199     4.793418625
 C       -3.512758074    13.261951055    -1.221225468
 C       -5.863270460    12.479609016     0.601444558
 C       -0.664858657    -0.951218287    -1.508638835
 C       -0.645801607    -0.867751470     1.563883565
 H        1.075242378     2.647485711     0.889297899
 H        0.146921104     4.890926275     0.876271402
 H       -3.519092121     3.410585912    -0.824142342
 H       -2.618690449     1.152448296    -0.858664150
 H       -3.362262395     5.699977799    -0.385147717
 H       -0.697837328     6.714880867     0.820683318
 H       -4.207856052     7.550094809    -0.429582101
 H       -5.115429878     9.804203156    -0.432193682
 H       -1.383427477    11.265283837     1.269338858
 H       -0.516198447     8.992333589     1.248673999
 H       -3.124865305    14.514949911     1.532782672
 H       -2.801534014    11.894598304     3.203165776
 H       -1.819496756    12.110760369     5.306705104
 H       -0.795445378    13.438658278     7.080482274
 H       -1.128517884    16.974328991     4.606627727
 H       -2.269575648    15.660720725     2.904227450
 H        0.653145182    17.912515332     7.535977942
 H       -0.698719324    18.037766543     6.397760879
 H        0.903405774    17.463997969     5.823646886
 H        4.962437000    13.049071744     6.922980956
 H        3.702859999    12.873726698     5.665502028
 H        4.317731914    11.440667391     6.558184142
 H        1.021446735    12.675207531     9.431745259
 H       -1.111343595    11.476014535     9.207494113
 H        0.306190314     9.619366024     5.590018282
 H        2.363740718    10.927417346     5.713310741
 H       -2.507423360     9.999384420     8.143578226
 H       -1.457026286     8.602003241     5.552021114
 H       -1.583779740     6.091495014     7.068978810
 H       -1.292082959     3.691117310     6.782697934
 H       -5.104745906     3.419819680     4.803905116
 H       -5.423907230     5.816265285     5.038447337
 H       -1.999247950     1.592516919     6.063292447
 H       -4.736118575     1.429248742     4.625010331
 H       -1.631339944    -0.377019642     5.907263405
 H       -1.275714853    -2.766031288     5.656402950
 H       -5.102494187    -3.080049830     3.608705392
 H       -5.425447889    -0.686782028     3.899892594
 H        0.953103536    16.059646953     8.733594696
 H        0.178100201    14.506054765     8.354256836
 H        1.713537797    14.316020577     6.283895027
 H        2.545157529    15.778197077     6.794093127
 H        3.886778973    14.533147062     8.205363811
 H        2.473459561    14.081715447     9.163687581
 H        2.262789773    -1.029788289    -0.025501812
 H        2.274695668     0.493091482     0.898451448
 H        2.259410934     0.531563219    -0.884606165
 H       -1.061083281    -6.552750330     4.799959084
 H       -1.052578639    -5.268136390     6.033581780
 H       -0.427562485    -4.938260920     4.393731057
 H       -3.935825705    -6.977394219     5.333501715
 C       -4.153850742    -5.516646477     6.927008756
 C       -5.653391888    -5.710713823     4.934963744
 H       -4.184539903    -4.976257425     2.293123451
 C       -2.134439423    -4.665761960     1.653020147
 C       -3.135786533    -6.876044319     2.272976869
 H       -4.836233621     9.391111335     7.984827835
 C       -6.235640768     7.752265717     7.723559916
 C       -4.153661290     7.658885972     9.108358749
 H       -5.692465414     8.210717402     4.779060588
 C       -4.879231213    10.221347664     4.920651618
 C       -3.979177115     8.395130845     3.459559269
 H       -3.925525704    14.310587575    -1.180271085
 C       -1.989778139    13.354167792    -1.423719089
 C       -4.135380729    12.549203998    -2.434020732
 H       -6.257018971    11.953476661    -0.316523352
 C       -6.375717363    11.723151876     1.838584407
 C       -6.444682845    13.905257833     0.616412169
 H       -1.790054354    -0.932320800    -1.416883758
 C       -0.289107892    -0.280375015    -2.842179540
 C       -0.225652391    -2.426481051    -1.546875642
 H       -0.293223815    -1.937172100     1.504422943
 C       -0.086148045    -0.252981510     2.858905602
 C       -2.181904653    -0.866010552     1.637945071
 H       -3.172845760    -5.694505925     7.386123485
 H       -4.872690180    -6.126982429     7.492346220
 H       -4.424094420    -4.467881318     7.117380261
 H       -5.792747523    -5.999769081     3.885679812
 H       -6.022723397    -4.682680934     5.054815843
 H       -6.331522633    -6.348329269     5.520917587
 H       -2.126114629    -3.571272538     1.768261988
 H       -2.373466959    -4.860879921     0.597984290
 H       -1.108279906    -5.022904492     1.809793969
 H       -3.898041485    -7.438513213     2.827303656
 H       -2.162044235    -7.337789666     2.483098456
 H       -3.337050272    -7.056116190     1.206901979
 H       -6.798285900     8.222902807     6.907133539
 H       -6.794500313     7.969865874     8.645211077
 H       -6.288951119     6.663216431     7.584742861
 H       -3.130637585     8.010324103     9.298785620
 H       -4.123112662     6.560080111     9.077957220
 H       -4.742408943     7.924983893     9.997385707
 H       -5.441203886    10.516844155     5.815420495
 H       -5.452876761    10.595488816     4.060429818
 H       -3.932670935    10.782030224     4.921660062
 H       -3.818639645     7.322956517     3.280552416
 H       -3.005357621     8.895195880     3.353697284
 H       -4.589486027     8.754614825     2.616962191
 H       -1.475315373    13.901690510    -0.622057013
 H       -1.764733541    13.889088870    -2.357068840
 H       -1.510940685    12.368166981    -1.511532005
 H       -5.232363250    12.533427319    -2.414605588
 H       -3.787034006    11.512368321    -2.546451152
 H       -3.852872339    13.068307404    -3.361404657
 H       -6.041475191    10.676559518     1.877688340
 H       -7.474375538    11.695117699     1.837358284
 H       -6.080646368    12.208213063     2.781045942
 H       -6.195353197    14.488227791    -0.279128756
 H       -6.127333381    14.486148971     1.494068504
 H       -7.542580444    13.862811580     0.657175262
 H       -0.619989316     0.765690560    -2.910338002
 H       -0.767029616    -0.808916800    -3.678969800
 H        0.790439861    -0.298588658    -3.041906113
 H       -0.538128227    -2.994670362    -0.660555732
 H        0.859671132    -2.548177001    -1.657539851
 H       -0.680612574    -2.930857442    -2.411358562
 H        1.008562805    -0.269645527     2.915457723
 H       -0.450486364    -0.825077959     3.726321647
 H       -0.417944702     0.783688856     3.016290588
 H       -2.666437747    -1.368319420     0.792822369
 H       -2.606357092     0.145638308     1.718791417
 H       -2.512558541    -1.396543875     2.546479883

