187   

Si        0.000000000     0.000000000     0.000000000
 C        1.865209846     0.000000000     0.000000000
 C       -0.683233139     1.709206032     0.000000000
 C        0.123360241     2.811395919    -0.299994251
 C       -0.407707522     4.101260021    -0.296275250
 C       -1.755660607     4.318026233     0.000567815
 C       -2.563576221     3.212019404     0.297406379
 C       -2.036039776     1.923926147     0.297011362
 C       -2.355692431     5.647884855     0.016756625
 C       -1.697271629     6.789633785    -0.245528991
 C       -2.301642894     8.117791713    -0.228159074
 C       -1.498602274     9.228149014    -0.521527744
 C       -2.032097099    10.514341885    -0.516892437
 C       -3.387281908    10.718653686    -0.228630109
 C       -4.191610457     9.612095099     0.063516379
 C       -3.651600100     8.326572509     0.067369629
Si       -4.103387856    12.413133392    -0.219522497
 C       -5.916846527    12.313962044    -0.422274545
 C       -6.829572163    12.923271680     0.345481753
 C       -8.275310405    12.813624812     0.143487674
 C       -9.136748404    13.498438325     1.012899996
 C      -10.511917947    13.427527682     0.864813859
 C      -11.081606925    12.617599006    -0.142422025
 C      -10.217632506    11.928201907    -1.014628126
 C       -8.840267595    12.048152321    -0.879705185
 N      -12.476854010    12.555928849    -0.280217836
 C      -13.293752406    12.681894777     0.939271802
 C      -13.015989393    11.619717396    -1.276502454
 C      -12.962830927    11.681501465     2.059862490
 C      -13.545026593    10.274778978     1.840545928
 N      -14.977978011    10.129115742     2.150421791
 C      -15.411980493    10.511527317     3.429247889
 C      -14.554884577    10.341776171     4.539047425
 C      -14.968252460    10.714107224     5.807374792
 C      -16.256046672    11.221531026     6.032781303
 C      -17.113060289    11.360009896     4.938000031
 C      -16.710059542    11.007394712     3.656316424
 C      -15.874246854    10.413147116     1.020883982
 C      -16.641219515    11.599805008     7.393542900
 C      -17.841727937    12.093746116     7.723067843
Si      -18.378040802    12.582357066     9.400258916
 C      -20.002861769    11.807360456     9.777888704
 C      -20.383026727    10.626659128     9.130871454
 C      -21.612600912    10.031706870     9.410402353
 C      -22.481994242    10.594985447    10.348637041
 C      -22.095195964    11.773787083    11.000208093
 C      -20.870057309    12.373580443    10.720246343
 C      -23.777701018    10.007305972    10.672761431
 C      -24.267022601     8.883333619    10.122410464
 C      -25.562601484     8.295296854    10.446193126
 C      -26.434732465     8.859930833    11.380492334
 C      -27.664550711     8.264017675    11.659705382
 C      -28.045139963     7.082646432    11.015708067
 C      -27.171700175     6.513306385    10.079160576
 C      -25.948412047     7.114745596     9.797028540
Si      -29.664763204     6.284148635    11.373381492
 C      -30.449602501     6.983864790    12.914207382
 C      -30.844067444     6.559812534     9.904952793
 C      -29.378054773     4.412911734    11.574262878
 C      -17.116638353    12.043093406    10.717102937
 C      -18.541621788    14.477577705     9.452985707
 C       -3.635495153    13.278190839     1.407921190
 C       -3.386072645    13.412825643    -1.671254074
 C       -0.612216537    -0.922637988    -1.548431065
 C       -0.655035501    -0.906714370     1.540540874
 H        1.184724230     2.704492504    -0.540282780
 H        0.242168972     4.942670589    -0.529575743
 H       -3.616253336     3.358866917     0.531743445
 H       -2.714506829     1.100634443     0.537870090
 H       -3.420890155     5.665197260     0.266181684
 H       -0.632428346     6.774006007    -0.494945659
 H       -0.444974559     9.086843524    -0.754082223
 H       -1.357463957    11.342765935    -0.749424737
 H       -5.256276657     9.714209312     0.298391776
 H       -4.296334411     7.481548415     0.301761402
 H       -6.222199786    11.689550288    -1.278741501
 H       -6.559858842    13.557956907     1.199727089
 H       -8.719402394    14.110035847     1.813876695
 H      -11.149723800    14.001255727     1.531312383
 H      -10.610969536    11.299992501    -1.806532804
 H       -8.194019304    11.516421240    -1.580503661
 H      -14.116729620    11.680434037    -1.297052339
 H      -12.724903195    10.570781500    -1.102206709
 H      -12.662949243    11.921276049    -2.281230844
 H      -15.426524918    10.050051931     0.080994269
 H      -16.116530092    11.482372468     0.905131250
 H      -16.817504826     9.851202846     1.160446321
 H      -13.563406068     9.918712878     4.404508441
 H      -14.281643672    10.594430679     6.646420189
 H      -18.121875794    11.750638395     5.084193088
 H      -17.409236618    11.133510020     2.836672412
 H      -15.843453608    11.434988219     8.129528448
 H      -18.619557398    12.252514417     6.957293080
 H      -19.741201604    10.138144119     8.390005545
 H      -21.889409894     9.116713064     8.889896464
 H      -22.757872377    12.228165151    11.734089111
 H      -20.621843631    13.292329873    11.258397662
 H      -24.354724199    10.556912403    11.422183518
 H      -23.689717295     8.333549170     9.373140475
 H      -26.159864067     9.775999846    11.900169029
 H      -28.305152072     8.753949322    12.398183831
 H      -27.415518133     5.590397214     9.545439927
 H      -25.284435930     6.658914669     9.064953384
 H      -13.161489799    13.723729455     1.321080145
 H      -14.367565590    12.608949262     0.659808566
 H      -11.862113763    11.601904178     2.176205483
 H      -13.326007872    12.089417267     3.025877428
 H      -13.369507544     9.942229745     0.794100781
 H      -12.992199502     9.541305721     2.477065023
 H        2.262803171    -1.029935971     0.038724846
 H        2.261235410     0.541791560     0.878189255
 H        2.274968765     0.480644811    -0.905565272
 H      -31.401937268     6.472987274    13.142935122
 H      -30.667192233     8.061217226    12.809982280
 H      -29.786323251     6.856396536    13.789053001
 H      -31.825165323     6.093631796    10.210482244
 C      -31.093004192     8.052219522     9.619654351
 C      -30.379055996     5.880458469     8.604437934
 H      -28.953804285     4.057575105    10.590339926
 C      -28.350934967     4.089027687    12.674231325
 C      -30.669047704     3.619674928    11.843975027
 H      -16.122980087    12.463203448    10.386280316
 C      -17.425346348    12.598833344    12.118912794
 C      -16.984508946    10.511967929    10.810831360
 H      -18.842133999    14.735507581    10.509532370
 C      -17.220539652    15.203592556     9.143472865
 C      -19.636196275    15.001669836     8.506353241
 H       -4.180954539    14.266139545     1.401848204
 C       -4.091672229    12.484582758     2.646028803
 C       -2.129095684    13.567573136     1.534780404
 H       -2.274224979    13.472766240    -1.488816706
 C       -3.607878472    12.722076609    -3.028615501
 C       -3.935538762    14.848303581    -1.742125277
 H       -0.117831982    -1.936355853    -1.514784456
 C       -2.136171524    -1.136860206    -1.575971271
 C       -0.188336868    -0.227927854    -2.855514175
 H       -1.779366251    -0.915367016     1.439863585
 C       -0.180466952    -2.367317258     1.641240669
 C       -0.305402205    -0.174156963     2.848596745
 H      -31.506791586     8.597649671    10.477536672
 H      -31.822445461     8.163371540     8.804575874
 H      -30.185865801     8.581848298     9.294567188
 H      -30.261261754     4.793527056     8.698387337
 H      -29.433695642     6.291355709     8.222785405
 H      -31.123569096     6.040066286     7.810836119
 H      -27.380038380     4.581482021    12.519972477
 H      -28.147351278     3.008886964    12.693969840
 H      -28.700758256     4.356042048    13.680237847
 H      -31.427367374     3.743551980    11.060135035
 H      -31.135985089     3.874874707    12.804484233
 H      -30.445799597     2.543645874    11.887742542
 H      -17.433099298    13.695336436    12.161198538
 H      -16.654093842    12.270770887    12.831023399
 H      -18.383377496    12.239551134    12.520662678
 H      -16.723400107    10.033503225     9.857014967
 H      -17.900294999    10.027875031    11.180214621
 H      -16.188096070    10.244195966    11.519272545
 H      -16.408728991    14.944189705     9.835165790
 H      -17.359850823    16.290862588     9.226794910
 H      -16.859323033    15.017255737     8.121920671
 H      -20.623753829    14.556698582     8.693197762
 H      -19.396449134    14.843796247     7.445896628
 H      -19.759036974    16.086292912     8.636308784
 H       -5.168946489    12.270014955     2.658784823
 H       -3.879271946    13.056214222     3.560355873
 H       -3.565491528    11.524957103     2.753893085
 H       -1.741245155    14.216139735     0.739031031
 H       -1.517818436    12.654257121     1.553390784
 H       -1.925553836    14.089653021     2.481139897
 H       -3.204258870    11.700499281    -3.068805061
 H       -3.099326449    13.284024184    -3.824890563
 H       -4.667262806    12.672254066    -3.315406199
 H       -3.736023519    15.436200360    -0.836958090
 H       -5.018522318    14.883295167    -1.929254855
 H       -3.462697421    15.391994905    -2.572456011
 H       -2.511378276    -1.709035032    -0.718110460
 H       -2.418473713    -1.708549566    -2.472109882
 H       -2.699061811    -0.194100375    -1.625873719
 H        0.898167387    -0.107326927    -2.953547977
 H       -0.645886278     0.764224146    -2.979257608
 H       -0.510096640    -0.824825013    -3.720923258
 H       -0.455008187    -2.975052695     0.769433178
 H       -0.644104576    -2.853066126     2.512224724
 H        0.904836077    -2.456174957     1.782641683
 H       -0.662670971     0.865387091     2.872560643
 H        0.772606451    -0.157963940     3.056820721
 H       -0.777810643    -0.680682603     3.702284029

