187   

Si        0.000000000     0.000000000     0.000000000
 C        1.865350891     0.000000000     0.000000000
 C       -0.645036948     1.724943120     0.000000000
 C       -0.066293834     2.674686520    -0.850915898
 C       -0.533922901     3.987571513    -0.872163876
 C       -1.590071801     4.383473810    -0.046140484
 C       -2.171841864     3.430840541     0.799831872
 C       -1.709862354     2.116770662     0.819520687
 C       -2.112002184     5.745911759    -0.034851417
 C       -1.647698572     6.749519521    -0.798600443
 C       -2.170466115     8.111688716    -0.786458448
 C       -3.226980712     8.504194363     0.041053060
 C       -3.695724605     9.816050239     0.021169241
 C       -3.136709930    10.759686175    -0.849900255
 C       -2.082636910    10.367722934    -1.682871662
 C       -1.600395732     9.061234499    -1.643721247
Si       -3.770124664    12.484154318    -0.859557470
 C       -3.372194678    13.441741183    -2.364679527
 C       -3.210955568    12.932941340    -3.592861871
 C       -2.891766754    13.739418563    -4.773697081
 C       -2.746246592    13.093518672    -6.010869726
 C       -2.444690716    13.809724147    -7.157993950
 C       -2.260018872    15.204401879    -7.091782328
 C       -2.407677622    15.854976792    -5.858808643
 C       -2.732490736    15.126386154    -4.719400462
 N       -1.952205436    15.881005327    -8.306500681
 C       -0.688146367    15.421551692    -8.934333757
 C       -2.076036692    17.347647195    -8.259588681
 C        0.446621285    15.090210433    -7.944855596
 C        1.773856836    15.822423762    -8.202687746
 N        1.766160599    17.287906012    -8.038887390
 C        1.166309055    17.832676372    -6.895367955
 C        1.140678854    17.105104518    -5.684586356
 C        0.548145982    17.642769649    -4.554309118
 C        0.035332663    18.948172319    -4.554175645
 C        0.100691601    19.684354194    -5.739159216
 C        0.656789471    19.147206038    -6.892604347
 C        1.591370842    18.024929270    -9.300808857
 C       -0.581057432    19.469087711    -3.333684421
 C       -1.101746578    20.699027272    -3.222347445
Si       -1.869655148    21.340974170    -1.693669500
 C       -2.623743764    19.962915285    -0.736335644
 C       -3.547470303    19.136478841    -1.393894016
 C       -4.150417325    18.078779589    -0.722233407
 C       -3.864381503    17.833025380     0.628205970
 C       -2.947334594    18.658270336     1.281919302
 C       -2.326205198    19.708853923     0.604406785
 C       -4.526715811    16.710112383     1.279021957
 C       -4.348788127    16.330704862     2.555757971
 C       -5.033871540    15.197194516     3.169311704
 C       -5.943632866    14.406715364     2.460668100
 C       -6.583837835    13.330637210     3.069881914
 C       -6.299440331    12.996690238     4.399500109
 C       -5.376493379    13.774996362     5.107256459
 C       -4.752134477    14.862615348     4.499052363
Si       -7.174374555    11.564761934     5.155828016
 C       -9.002608366    11.650820458     4.801795586
 C       -6.445424035     9.978750795     4.387739348
 C       -6.866335692    11.509610429     7.031763500
 C       -0.531453336    22.222518741    -0.664492332
 C       -3.203477568    22.617089664    -2.152084517
 C       -5.669339060    12.495872495    -0.673070182
 C       -3.022472964    13.392366550     0.636945386
 C       -0.640612126    -0.898871753    -1.550904033
 C       -0.641479624    -0.938398854     1.527801572
 H        0.764833371     2.426264942    -1.517450583
 H       -0.065573924     4.706939161    -1.541465352
 H       -2.996956194     3.716566101     1.449421369
 H       -2.208930821     1.417885421     1.496175929
 H       -2.939198336     5.912939596     0.661195326
 H       -0.820396854     6.582826549    -1.494539898
 H       -3.686797047     7.785884416     0.716681590
 H       -4.509010109    10.070050251     0.708856034
 H       -1.600015187    11.065432158    -2.374846233
 H       -0.773619019     8.777414158    -2.291884048
 H       -3.281313168    14.527081278    -2.186489500
 H       -3.306919902    11.861454345    -3.811558547
 H       -2.877967141    12.013517797    -6.074899334
 H       -2.354743719    13.301933976    -8.114971223
 H       -2.253567864    16.928644555    -5.774268936
 H       -2.846097297    15.654416036    -3.771115932
 H       -2.009755835    17.743327730    -9.286581600
 H       -1.315202983    17.848260083    -7.637864747
 H       -3.076068384    17.616402956    -7.875051010
 H        2.086622451    17.491422283   -10.128724818
 H        2.092107947    19.007981229    -9.215621091
 H        0.535252225    18.187029554    -9.572672135
 H        1.588047412    16.116389896    -5.630012142
 H        0.504404633    17.045062994    -3.641449264
 H       -0.288376264    20.703405129    -5.768047791
 H        0.689602903    19.758557664    -7.787747810
 H       -0.591657512    18.741492903    -2.509262452
 H       -1.073867101    21.412003779    -4.059059356
 H       -3.807180611    19.280096395    -2.448832931
 H       -4.854270542    17.439042721    -1.252212079
 H       -2.706099639    18.485459946     2.328650202
 H       -1.614111426    20.318937207     1.166331257
 H       -5.227728485    16.167624540     0.634280485
 H       -3.659501211    16.867687466     3.211361483
 H       -6.182566378    14.643171678     1.424191532
 H       -7.304741248    12.767717416     2.468807315
 H       -5.113037105    13.559483212     6.146062258
 H       -4.040233347    15.457114999     5.068064084
 H       -0.949160612    14.510684743    -9.522835290
 H       -0.356903447    16.175621313    -9.676935140
 H        0.110198701    15.293214405    -6.905405523
 H        0.637653666    13.999238668    -7.958339224
 H        2.546814111    15.427169945    -7.496463195
 H        2.146388892    15.576780582    -9.222019749
 H        2.264719490    -1.028894635     0.038405604
 H        2.257475588     0.543594322     0.879318614
 H        2.276974378     0.485773861    -0.901664207
 H       -9.535331593    10.790192310     5.243640157
 H       -9.214233513    11.655535281     3.718415095
 H       -9.443270120    12.570000781     5.229946191
 H       -6.971486619     9.123821491     4.901436762
 C       -6.706235676     9.857571699     2.875026339
 C       -4.933094150     9.833710613     4.635452553
 H       -5.745580641    11.545859632     7.163876503
 C       -7.472819891    12.717258059     7.769983637
 C       -7.373164635    10.217944130     7.699311919
 H       -1.019853346    22.486031818     0.317671591
 C        0.679143436    21.316198246    -0.375623537
 C       -0.026192096    23.526945177    -1.307222405
 H       -2.658253663    23.446156456    -2.690560309
 C       -4.275191986    22.061103491    -3.106507586
 C       -3.899833575    23.222778303    -0.920685342
 H       -5.875283280    12.360741340     0.427832007
 C       -6.300007432    13.825916653    -1.127553747
 C       -6.363267174    11.351772969    -1.432935862
 H       -3.628083353    14.337148156     0.766884582
 C       -3.120294044    12.584109950     1.941864307
 C       -1.556150513    13.800660704     0.411792054
 H       -0.198714506    -1.936147608    -1.508028542
 C       -2.174017669    -1.032005865    -1.578950278
 C       -0.178668455    -0.239461751    -2.863047106
 H       -1.766275523    -0.847556295     1.497655671
 C       -0.293392394    -2.438278591     1.517488377
 C       -0.149369336    -0.325917229     2.852093443
 H       -7.770609234     9.893682072     2.611276050
 H       -6.333063123     8.890277702     2.507541073
 H       -6.187825331    10.631408649     2.290197450
 H       -4.661942259     9.831070733     5.698527029
 H       -4.342119594    10.620951466     4.143841730
 H       -4.573735970     8.878277147     4.225850581
 H       -7.150339516    13.687374897     7.367651608
 H       -7.167219433    12.705330847     8.826109924
 H       -8.571323912    12.709726527     7.767028641
 H       -6.908582516     9.309190497     7.295094550
 H       -8.462174235    10.096603436     7.629954500
 H       -7.133796559    10.231854522     8.772779952
 H        0.417003484    20.370759559     0.117649643
 H        1.383219722    21.828914391     0.294642315
 H        1.245575659    21.063520694    -1.284446797
 H       -0.815953628    24.274716017    -1.453519480
 H        0.467082851    23.364274414    -2.275401380
 H        0.724392693    23.999311970    -0.656776750
 H       -3.859825527    21.607842608    -4.016663814
 H       -4.937163806    22.872783676    -3.440933828
 H       -4.925704337    21.315999618    -2.627364621
 H       -3.208711242    23.725313967    -0.231586286
 H       -4.465893440    22.480072879    -0.340378572
 H       -4.627766523    23.984230970    -1.235896361
 H       -5.842762654    14.715081042    -0.676256907
 H       -7.365923549    13.848213972    -0.860885403
 H       -6.253695820    13.958618684    -2.219062004
 H       -6.023130615    10.352132334    -1.131394433
 H       -6.235027032    11.422166981    -2.522168577
 H       -7.446245905    11.377977201    -1.248194728
 H       -4.151583316    12.323288460     2.219580611
 H       -2.731698300    13.181029492     2.780839406
 H       -2.531030541    11.657738980     1.921532510
 H       -1.410928918    14.442345607    -0.467746213
 H       -0.881836345    12.939126638     0.313084034
 H       -1.193653022    14.378827619     1.274351836
 H       -2.580047293    -1.579689429    -0.718942300
 H       -2.487127879    -1.589535672    -2.473487101
 H       -2.686423889    -0.060519663    -1.628409306
 H        0.912522569    -0.168196224    -2.955041168
 H       -0.595057945     0.768453460    -3.002986332
 H       -0.520626650    -0.833811652    -3.722653822
 H       -0.690060959    -2.970360124     0.643138158
 H       -0.729403615    -2.930437976     2.399028141
 H        0.786947101    -2.628716391     1.563187509
 H       -0.377199167     0.744276367     2.953056884
 H        0.932281906    -0.446361558     3.000807433
 H       -0.635468412    -0.825784719     3.701974061

