187   

Si        0.000000000     0.000000000     0.000000000
 C        1.865800073     0.000000000     0.000000000
 C       -0.672455346     1.713833028     0.000000000
 C        0.170768596     2.820902172     0.136976816
 C       -0.350686197     4.114498109     0.135487878
 C       -1.724953591     4.331050647     0.006132661
 C       -2.568939597     3.220599456    -0.129803462
 C       -2.050791496     1.928526349    -0.136026264
 C       -2.313124473     5.666592155    -0.000401131
 C       -1.613964311     6.808485937     0.114598932
 C       -2.195989910     8.146353646     0.108773010
 C       -3.569073144     8.371932734    -0.020108785
 C       -4.081064984     9.669222456    -0.020503304
 C       -3.229820691    10.770183269     0.116448788
 C       -1.852454588    10.546503233     0.244564866
 C       -1.343277482     9.251061547     0.235385754
Si       -3.878517778    12.490858473     0.119170336
 C       -2.845038028    13.612489487     1.128080802
 C       -2.146263025    13.216411522     2.200618857
 C       -1.315414613    14.102705435     3.016930179
 C       -0.632675914    13.562147192     4.116783548
 C        0.166679009    14.357054247     4.921694484
 C        0.281050487    15.737905898     4.663700320
 C       -0.391023847    16.279401331     3.557519335
 C       -1.155542449    15.460806267     2.733781314
 N        1.111664176    16.507735794     5.516626765
 C        0.801923161    16.420581138     6.957959041
 C        1.385114550    17.886557420     5.076650114
 C       -0.533030396    17.067088774     7.374000365
 C       -1.673976481    16.035095556     7.471046053
 N       -3.034251165    16.580524168     7.265780889
 C       -3.301728001    16.811165825     5.871864071
 C       -3.895991183    15.744034182     5.180814487
 C       -4.190404919    15.875908744     3.832333022
 C       -3.885538085    17.060122877     3.143903958
 C       -3.303190400    18.119494091     3.844425687
 C       -3.027256645    18.008364616     5.203816903
 C       -3.338446234    17.736332560     8.127902704
 C       -4.217300673    17.148698832     1.719108293
 C       -3.974836311    18.224429435     0.960219418
Si       -4.365288597    18.392411691    -0.817232912
 C       -5.270853884    19.958897992    -1.128956826
 C       -5.932713874    20.614708904    -0.085808627
 C       -6.620481500    21.804383771    -0.322415419
 C       -6.671870288    22.356729449    -1.605237922
 C       -6.013242904    21.693696750    -2.649511822
 C       -5.320963623    20.508370832    -2.416080652
 C       -7.379136715    23.598736520    -1.899337794
 C       -8.048722074    24.330952375    -0.992995360
 C       -8.755983697    25.572935416    -1.287051590
 C       -8.803356856    26.128458010    -2.568203429
 C       -9.491581072    27.318391773    -2.804619644
 C      -10.153971099    27.976104696    -1.763434660
 C      -10.108741070    27.420375792    -0.477591482
 C       -9.416600840    26.235499113    -0.243651379
Si      -11.066604368    29.547261877    -2.059301363
 C      -11.309204769    29.867308141    -3.880936336
 C      -12.752007153    29.433708704    -1.181766694
 C      -10.089285187    30.997621962    -1.307749743
 C       -2.722735350    18.350333227    -1.774297008
 C       -5.448776450    16.944022115    -1.407095069
 C       -3.922909360    13.170067949    -1.655479650
 C       -5.645752314    12.488915022     0.829134761
 C       -0.666496299    -0.890062275    -1.544307900
 C       -0.597279699    -0.932561325     1.548457711
 H        1.253779344     2.715284931     0.245529920
 H        0.328168759     4.959116279     0.239093638
 H       -3.642355301     3.367007769    -0.233750503
 H       -2.757289204     1.101683026    -0.251760358
 H       -3.401264578     5.687756094    -0.108709779
 H       -0.525325064     6.785089439     0.222736240
 H       -4.253194886     7.531730945    -0.122449319
 H       -5.163180925     9.781254010    -0.128645399
 H       -1.138128879    11.370763201     0.349606623
 H       -0.269893176     9.097618136     0.331822605
 H       -2.840632921    14.663677329     0.798804706
 H       -2.142442607    12.176034668     2.556421630
 H       -0.726785642    12.499258823     4.341640009
 H        0.715769448    13.914741406     5.748976983
 H       -0.335251107    17.340748040     3.335733773
 H       -1.661851790    15.904402930     1.873014076
 H        2.153983593    18.328108896     5.733494829
 H        0.504270084    18.547832737     5.079266947
 H        1.807264414    17.862464829     4.055586123
 H       -3.257993699    17.416567907     9.180977323
 H       -4.384930708    18.043077620     7.953575206
 H       -2.691680403    18.612928767     7.979777726
 H       -4.117148310    14.820199336     5.714501665
 H       -4.647540662    15.039346807     3.301081008
 H       -3.066896949    19.051432560     3.330886420
 H       -2.592713278    18.848763668     5.736304920
 H       -4.698259700    16.240709767     1.329897212
 H       -3.485758464    19.119075888     1.381970714
 H       -5.931670004    20.225878004     0.937842810
 H       -7.123103486    22.300211615     0.506168817
 H       -6.041359275    22.107513412    -3.655718548
 H       -4.824410134    20.036477482    -3.268337339
 H       -7.332255316    23.914985986    -2.945546546
 H       -8.096190920    24.014233993     0.053125363
 H       -8.299881469    25.634076672    -3.396953314
 H       -9.492451504    27.704425761    -3.827740365
 H      -10.608710105    27.889667118     0.374481405
 H       -9.391859896    25.819943404     0.761987014
 H        0.829234843    15.350083817     7.260447356
 H        1.643463672    16.906287986     7.504016118
 H       -0.413571236    17.583995962     8.342499203
 H       -0.805139913    17.856496704     6.647154609
 H       -1.521371764    15.221290739     6.722411248
 H       -1.667100811    15.548267518     8.471244330
 H        2.263804995    -1.030206641    -0.024977267
 H        2.273419744     0.492208914     0.900479079
 H        2.263426648     0.529614593    -0.884636618
 H      -11.895278972    30.788604990    -4.048519073
 H      -11.856242039    29.034909165    -4.359748697
 H      -10.346319364    29.985558922    -4.407992968
 H      -12.521257251    29.290246387    -0.086047444
 C      -13.603676767    30.708034149    -1.320750125
 C      -13.579672042    28.223391473    -1.650559725
 H      -10.670797951    31.927244722    -1.573969825
 C       -9.970281405    30.933311052     0.225440944
 C       -8.677096851    31.129871994    -1.906934205
 H       -2.996188438    18.421650231    -2.866395498
 C       -1.811909444    19.543409567    -1.434814028
 C       -1.938714570    17.042897634    -1.561398371
 H       -4.952446933    16.007460809    -1.016392556
 C       -6.872638685    17.012862972    -0.826182342
 C       -5.542684958    16.825885952    -2.937876666
 H       -4.311479548    14.228598910    -1.577833882
 C       -2.523608624    13.223638602    -2.293877601
 C       -4.867854814    12.386646890    -2.582158401
 H       -6.233308659    11.773924123     0.183630638
 C       -5.683817219    11.968690199     2.277514806
 C       -6.346646068    13.855964089     0.772562066
 H       -1.791332230    -0.870208460    -1.449098400
 C       -0.292608489    -0.165273497    -2.850010274
 C       -0.226618099    -2.361439501    -1.643982460
 H       -0.071969967    -1.931098467     1.519777507
 C       -0.197975118    -0.220382607     2.854051593
 C       -2.113404546    -1.195479803     1.575980554
 H      -13.105116953    31.608145662    -0.938409716
 H      -14.533246224    30.602898005    -0.742456777
 H      -13.908497239    30.908708887    -2.356395334
 H      -13.055200125    27.264988692    -1.526953173
 H      -13.890858351    28.296734709    -2.701035549
 H      -14.503220165    28.146110099    -1.059220370
 H      -10.940553724    30.923020486     0.737896586
 H       -9.436860470    31.820161183     0.597877470
 H       -9.395158231    30.063358874     0.572635748
 H       -8.676129175    31.267571182    -2.995852331
 H       -8.034440522    30.266964078    -1.680067098
 H       -8.169923092    32.009860269    -1.485841218
 H       -2.291279608    20.518823975    -1.596641609
 H       -0.920813678    19.532251754    -2.078538958
 H       -1.444205077    19.521160182    -0.399571810
 H       -2.500036065    16.144607092    -1.854227265
 H       -1.607543554    16.906297169    -0.521683860
 H       -1.026677831    17.047486864    -2.174974455
 H       -6.897133323    17.014495854     0.272472029
 H       -7.458434305    16.141059598    -1.150129925
 H       -7.431807799    17.896233442    -1.167244125
 H       -4.570489999    16.675458934    -3.424473285
 H       -6.022786743    17.695695348    -3.406949582
 H       -6.157801851    15.955643207    -3.210476105
 H       -1.797994997    13.807318810    -1.710138407
 H       -2.578000306    13.696013220    -3.284796457
 H       -2.090089985    12.226103900    -2.454991711
 H       -5.911870623    12.390580281    -2.243833395
 H       -4.564763133    11.338721030    -2.718029635
 H       -4.868967035    12.835237853    -3.586153976
 H       -5.279995225    10.952487122     2.385768737
 H       -6.721464497    11.924375647     2.636673012
 H       -5.139362692    12.615499033     2.981116812
 H       -6.411183928    14.270285708    -0.242421405
 H       -5.869237754    14.609056184     1.415434540
 H       -7.382367759    13.762538047     1.130096499
 H       -0.626471596     0.881980236    -2.875625862
 H       -0.771782096    -0.660504280    -3.706561218
 H        0.786562261    -0.173697916    -3.052231988
 H       -0.524517849    -2.964290266    -0.776407282
 H        0.857539725    -2.476439715    -1.774799322
 H       -0.693107907    -2.833754461    -2.520793476
 H        0.884359304    -0.068448795     2.955493698
 H       -0.506151375    -0.822224901     3.720962600
 H       -0.683097111     0.759365606     2.971559567
 H       -2.476202497    -1.753423997     0.703605982
 H       -2.704439373    -0.272687278     1.657537582
 H       -2.372304446    -1.802000120     2.456266721

