187   

Si        0.000000000     0.000000000     0.000000000
 C        1.865388770     0.000000000     0.000000000
 C       -0.678122870     1.711344745     0.000000000
 C        0.134187291     2.810287766     0.296794419
 C       -0.391234605     4.102357798     0.293598232
 C       -1.739403228     4.324867750     0.001687076
 C       -2.553049595     3.222187311    -0.291640579
 C       -2.030925777     1.931761618    -0.292642878
 C       -2.332411410     5.658024737    -0.013397420
 C       -1.665121682     6.795468203     0.245530841
 C       -2.258511106     8.128480674     0.230344768
 C       -1.444081414     9.231481721     0.520200613
 C       -1.965818219    10.522388825     0.517751452
 C       -3.320443445    10.738819739     0.235982492
 C       -4.136115751     9.639715812    -0.052598887
 C       -3.607831262     8.349291991    -0.059366375
Si       -4.020374128    12.439971353     0.230004310
 C       -5.831912068    12.363126193     0.458366211
 C       -6.745770387    12.981212825    -0.301081276
 C       -8.190575797    12.892453895    -0.082370522
 C       -9.051214582    13.585902910    -0.945871395
 C      -10.425547899    13.535186493    -0.782720159
 C      -10.995644696    12.739598616     0.235371000
 C      -10.132942383    12.042269648     1.101710232
 C       -8.755229526    12.140616601     0.950898630
 N      -12.392266476    12.700587616     0.385795755
 C      -13.209440103    12.793700117    -0.837474048
 C      -12.932321477    11.785529283     1.401780990
 C      -12.897562259    11.741433965    -1.915412793
 C      -13.557838512    10.375178423    -1.662931946
 N      -14.960819506    10.266742271    -2.100139082
 C      -15.244295634    10.532453072    -3.449903824
 C      -14.285117320    10.231316737    -4.441738870
 C      -14.551410519    10.488091371    -5.776345954
 C      -15.789494861    11.006037697    -6.183619275
 C      -16.748810667    11.274544313    -5.204211811
 C      -16.492958763    11.038203989    -3.859314775
 C      -15.938084034    10.731540270    -1.104907281
 C      -16.016217396    11.258156159    -7.607271071
 C      -17.155308361    11.750011245    -8.113414004
Si      -17.437572115    12.064652909    -9.892348781
 C      -16.481898381    10.907737681   -10.956188250
 C      -16.238619494     9.600989260   -10.517046739
 C      -15.516485032     8.710149888   -11.309242784
 C      -15.033768738     9.098393780   -12.562375537
 C      -15.286490709    10.403591889   -13.004022027
 C      -16.003673478    11.297819136   -12.212703874
 C      -14.273700635     8.199881479   -13.424962258
 C      -13.963991137     6.928019489   -13.120878398
 C      -13.204008789     6.028758078   -13.982752222
 C      -12.716375446     6.415882762   -15.233588753
 C      -11.994068759     5.522994638   -16.025081753
 C      -11.737903659     4.222911049   -15.578329132
 C      -12.225718454     3.832224320   -14.323875776
 C      -12.951599046     4.723639872   -13.538866696
Si      -10.786260017     3.032465663   -16.610726031
 C       -9.926520242     3.887874450   -18.028160566
 C       -9.511111448     2.162144546   -15.496944823
 C      -11.968499867     1.718028897   -17.315949573
 C      -19.291128815    11.836145160   -10.254327444
 C      -16.956221269    13.863803735   -10.281446594
 C       -3.271186254    13.441143679     1.664465229
 C       -3.565921351    13.289648027    -1.409514872
 C       -0.655056624    -0.903371945    -1.542353525
 C       -0.614101481    -0.923457733     1.546908708
 H        1.195865344     2.699206765     0.533888454
 H        0.263465516     4.941028076     0.523448591
 H       -3.605891109     3.373430138    -0.522351493
 H       -2.713591526     1.111268555    -0.530990245
 H       -3.398276981     5.681664627    -0.258718369
 H       -0.599226683     6.771892936     0.490505433
 H       -0.390802635     9.080524159     0.748276656
 H       -1.282473079    11.344617117     0.746916896
 H       -5.200918443     9.751747005    -0.282201053
 H       -4.261058787     7.510129156    -0.291108318
 H       -6.134553467    11.746170485     1.321061278
 H       -6.477746033    13.608541586    -1.161447295
 H       -8.633840009    14.186792837    -1.754896280
 H      -11.062816481    14.112450772    -1.446830993
 H      -10.526908112    11.423797367     1.901067889
 H       -8.109167411    11.602230647     1.646705344
 H      -14.032324657    11.854546486     1.427511065
 H      -12.570917238    12.103377807     2.398413586
 H      -12.649809613    10.731455518     1.245441137
 H      -15.596388338    10.477351866    -0.088108780
 H      -16.893003634    10.194863881    -1.262257066
 H      -16.132675885    11.815782202    -1.149542949
 H      -13.327734151     9.799057228    -4.164446155
 H      -13.787020138    10.268756795    -6.523756040
 H      -17.721414903    11.675969044    -5.492813074
 H      -17.268149655    11.261216930    -3.134293320
 H      -15.152806243    10.994597335    -8.235190533
 H      -18.002268334    12.013802092    -7.462406512
 H      -16.597260267     9.238472561    -9.547390063
 H      -15.333725976     7.701812847   -10.942059146
 H      -14.920462181    10.725587337   -13.976933688
 H      -16.170103705    12.302345752   -12.610680476
 H      -13.955791062     8.637895329   -14.375590394
 H      -14.282611493     6.489571373   -12.170502234
 H      -12.898373597     7.423488602   -15.602765722
 H      -11.639593519     5.883148882   -16.994832100
 H      -12.055860395     2.829006952   -13.922702331
 H      -13.324225827     4.401091098   -12.568453875
 H      -14.283154059    12.752559963    -0.552186811
 H      -13.058693119    13.816459447    -1.260644710
 H      -13.211847949    12.130191392    -2.905969138
 H      -11.799402671    11.606070883    -1.997606744
 H      -12.981172048     9.577986944    -2.191954516
 H      -13.500290035    10.106951068    -0.585444848
 H        2.263023769    -1.029991338    -0.036656797
 H        2.275367902     0.482517121     0.904458941
 H        2.261060032     0.539849153    -0.879505164
 H       -9.323658972     3.173675548   -18.617023934
 H       -9.242876000     4.674449356   -17.660151106
 H      -10.646767824     4.362205045   -18.717465374
 H      -10.108295325     1.632906186   -14.698395326
 C       -8.671372068     1.104648019   -16.235238617
 C       -8.565502320     3.154936284   -14.796866097
 H      -11.332204141     1.057931629   -17.973781289
 C      -12.618547684     0.831011616   -16.239032406
 C      -13.080532495     2.330168078   -18.187318062
 H      -19.832214225    12.569784260    -9.589842433
 C      -19.664675236    12.147146016   -11.714101143
 C      -19.782630424    10.420399940    -9.902877277
 H      -17.199663424    14.024862677   -11.371221986
 C      -17.750942926    14.895328137    -9.460808655
 C      -15.451492574    14.120656349   -10.083482597
 H       -2.161615106    13.488352614     1.464984215
 C       -3.804275540    14.882842435     1.734352573
 C       -3.479729434    12.761326040     3.029442374
 H       -4.098048830    14.284796063    -1.401411707
 C       -2.057838592    13.558080072    -1.560129247
 C       -4.050775458    12.495085892    -2.635977748
 H       -1.779740297    -0.906357834    -1.444996442
 C       -0.298165979    -0.172176083    -2.849209513
 C       -0.187405254    -2.366241597    -1.642143110
 H       -0.122665347    -1.938572275     1.511323657
 C       -0.188042075    -0.232216509     2.855114489
 C       -2.138667520    -1.133586743     1.574454197
 H       -9.276721973     0.317106590   -16.702253222
 H       -8.000735555     0.596718847   -15.526816794
 H       -8.026304086     1.535825507   -17.012246249
 H       -9.095285070     3.911359044   -14.200155864
 H       -7.907309991     3.687162097   -15.496332012
 H       -7.906535149     2.619625850   -14.098435931
 H      -11.890281278     0.284082223   -15.626965670
 H      -13.253095972     0.068493738   -16.713896538
 H      -13.275020076     1.394537688   -15.561041583
 H      -12.699473468     2.914718200   -19.034534153
 H      -13.762805627     2.976820803   -17.616845927
 H      -13.702296125     1.533065951   -18.619519026
 H      -19.430590923    13.176399124   -12.014313427
 H      -20.747662210    12.024050978   -11.859781855
 H      -19.181137728    11.470417330   -12.433267436
 H      -19.602198219    10.143098249    -8.855273390
 H      -19.330181592     9.642249122   -10.534545282
 H      -20.868336004    10.348488981   -10.058462085
 H      -18.836193807    14.827589430    -9.608727763
 H      -17.464172808    15.913935644    -9.759657254
 H      -17.553919332    14.825794271    -8.381846139
 H      -14.812642300    13.459925572   -10.685932952
 H      -15.135275812    14.018198884    -9.035187821
 H      -15.200698067    15.148016573   -10.382375650
 H       -3.614456909    15.462035760     0.821520604
 H       -3.311306311    15.427537202     2.552227107
 H       -4.883417993    14.930590833     1.939922844
 H       -3.086734319    11.735641387     3.070148392
 H       -4.535130174    12.724904949     3.332558544
 H       -2.952990718    13.322748652     3.814225166
 H       -1.651288446    14.211664157    -0.777930454
 H       -1.860475354    14.065490281    -2.515741485
 H       -1.458201052    12.636993396    -1.575373833
 H       -5.130665435    12.293605131    -2.631141414
 H       -3.538035421    11.528518942    -2.746621781
 H       -3.845710366    13.058983841    -3.556766945
 H       -0.652881014     0.868229775    -2.874863065
 H       -0.768193538    -0.677644511    -3.704796342
 H        0.780698998    -0.158613921    -3.053080307
 H       -0.469462413    -2.973467390    -0.772361951
 H        0.898096100    -2.460580905    -1.778224181
 H       -0.649061552    -2.848720646    -2.515966282
 H        0.898871883    -0.115560898     2.953496319
 H       -0.512122476    -0.829377023     3.719506580
 H       -0.642120319     0.761362480     2.980335724
 H       -2.516521437    -1.698436673     0.712930260
 H       -2.698647279    -0.189486014     1.631561122
 H       -2.421750129    -1.710890914     2.466742120

