187   

Si        0.000000000     0.000000000     0.000000000
 C        1.865200389     0.000000000     0.000000000
 C       -0.681541543     1.709776993     0.000000000
 C        0.129294257     2.812421236    -0.286428934
 C       -0.400536192     4.102813126    -0.282887004
 C       -1.752108854     4.319421033    -0.002578065
 C       -2.564402495     3.212862834     0.280041117
 C       -2.037615779     1.924446885     0.281919474
 C       -2.350802357     5.649971776     0.012676626
 C       -1.686913739     6.791783044    -0.235121764
 C       -2.287997582     8.121383369    -0.219253694
 C       -3.640666409     8.332637574     0.061770361
 C       -4.174903296     9.620644901     0.066498815
 C       -3.368209107    10.725999816    -0.222258373
 C       -2.012044934    10.517233783    -0.505318090
 C       -1.479369709     9.230950603    -0.498587653
Si       -4.054087946    12.430996496    -0.220932531
 C       -3.202445547    13.528875472    -1.408245399
 C       -2.642047056    13.105011373    -2.549023305
 C       -1.958473421    13.975480895    -3.505394372
 C       -1.413029634    13.406700470    -4.664725909
 C       -0.755282093    14.183697316    -5.603965210
 C       -0.652634392    15.581227428    -5.430441443
 C       -1.186623588    16.149327395    -4.259007913
 C       -1.797400988    15.348534786    -3.302969263
 N        0.019420741    16.357226222    -6.394600844
 C       -0.095718806    15.913233244    -7.799327762
 C       -0.065701992    17.818876813    -6.235299940
 C       -1.527412905    15.630775126    -8.292695709
 C       -2.271590748    16.892689588    -8.771211430
 N       -3.687755828    16.975435502    -8.342901880
 C       -3.809496673    17.251422186    -6.942989511
 C       -3.587413462    18.584238735    -6.554904911
 C       -3.684681141    18.940336691    -5.219184722
 C       -4.002240105    17.985228106    -4.241383220
 C       -4.241805658    16.667564904    -4.639066898
 C       -4.168411249    16.301778798    -5.980235926
 C       -4.496703836    15.839556039    -8.819042928
 C       -4.089898072    18.425340510    -2.847210652
 C       -4.382979064    17.626816451    -1.812244783
Si       -4.479286538    18.231678364    -0.086690562
 C       -5.010606996    19.990433168    -0.007510575
 C       -5.908104879    20.486714675    -0.962484504
 C       -6.322436339    21.814937403    -0.919780389
 C       -5.861864379    22.677588468     0.083895224
 C       -4.974118476    22.177792618     1.040490079
 C       -4.554730472    20.848409686     0.997989861
 C       -6.324890207    24.061295029     0.086403541
 C       -5.959168416    24.989404822     0.986837038
 C       -6.422886132    26.372984473     0.988369211
 C       -7.310458940    26.871623086     0.031487671
 C       -7.728038994    28.201871062     0.070520736
 C       -7.271396628    29.061720977     1.074336780
 C       -6.381853027    28.563609807     2.036121039
 C       -5.962115016    27.237131477     1.990882234
Si       -7.813514925    30.819790984     1.139068800
 C       -9.271397276    31.129534384     0.017423039
 C       -8.269173624    31.238623680     2.939257387
 C       -6.376799767    31.946494827     0.601134412
 C       -5.689742951    17.129009997     0.873635724
 C       -2.746917137    18.080326132     0.692850483
 C       -5.897526118    12.387120137    -0.698304112
 C       -3.889783509    13.178966233     1.519346544
 C       -0.611148562    -0.923051911    -1.548609661
 C       -0.656253458    -0.905810458     1.540380932
 H        1.193281811     2.705709013    -0.515063237
 H        0.253207485     4.944760656    -0.503315596
 H       -3.619805470     3.359430286     0.501782843
 H       -2.719260943     1.100885091     0.512678599
 H       -3.419071994     5.667489015     0.247846035
 H       -0.618660864     6.775196966    -0.470154779
 H       -4.290952363     7.488319527     0.282559852
 H       -5.238369867     9.722357176     0.299144809
 H       -1.333572379    11.346197671    -0.735095221
 H       -0.422533539     9.088587835    -0.716862114
 H       -3.196015002    14.593537336    -1.128803516
 H       -2.646997999    12.049261275    -2.855840570
 H       -1.500307527    12.332369201    -4.831641271
 H       -0.312723179    13.707862087    -6.473716647
 H       -1.131602675    17.219930373    -4.082339184
 H       -2.181445320    15.818067933    -2.394342641
 H        0.482934173    18.321574318    -7.047608108
 H        0.429732454    18.105768537    -5.289201416
 H       -1.102072691    18.201036915    -6.221949186
 H       -4.480551108    15.838398813    -9.922660061
 H       -5.545201961    15.987792195    -8.505598266
 H       -4.162011729    14.852061028    -8.466657341
 H       -3.355198354    19.329035521    -7.313825402
 H       -3.516830820    19.977562249    -4.928290545
 H       -4.492916220    15.906635154    -3.897363118
 H       -4.362386297    15.270924042    -6.263929056
 H       -3.891679635    19.500960221    -2.727487249
 H       -4.573911893    16.551469611    -1.949897965
 H       -6.306155014    19.857856410    -1.766387247
 H       -7.014708057    22.183969502    -1.674410666
 H       -4.602044208    22.826038515     1.831728605
 H       -3.860731099    20.516319306     1.774860303
 H       -7.018021753    24.312787294    -0.721820085
 H       -5.266522136    24.738276490     1.795437586
 H       -7.684650454    26.221922264    -0.757568931
 H       -8.422137538    28.534424226    -0.706262540
 H       -5.992466998    29.189039710     2.844504852
 H       -5.269707824    26.868970727     2.745569781
 H        0.398125320    16.663555055    -8.454393115
 H        0.518940493    14.985388220    -7.895334519
 H       -1.492641055    14.885645125    -9.107793509
 H       -2.106537689    15.141963907    -7.480612146
 H       -1.756133907    17.811737005    -8.414743891
 H       -2.263053280    16.946789535    -9.882475209
 H        2.262719189    -1.029842748     0.042021329
 H        2.261423306     0.544556226     0.876387450
 H        2.274766711     0.477684822    -0.907240851
 H       -9.617644555    32.175733745     0.094576004
 H      -10.122904066    30.477999923     0.285571670
 H       -9.021534599    30.939488856    -1.041072273
 H       -7.328941068    31.075520776     3.542456979
 C       -8.708355176    32.700255675     3.137447185
 C       -9.357219029    30.306976455     3.503182778
 H       -6.792032570    32.995719972     0.611764577
 C       -5.168659788    31.903574497     1.553886881
 C       -5.889847136    31.640672799    -0.827178208
 H       -5.319850215    16.070348994     0.735224288
 C       -5.721943166    17.425928045     2.382373916
 C       -7.121370266    17.211015733     0.314800650
 H       -2.850699205    18.475162004     1.744771396
 C       -2.219738485    16.639454929     0.781492299
 C       -1.706841290    18.944199829    -0.043495717
 H       -6.405839323    11.742401247     0.074655597
 C       -6.568249852    13.771484529    -0.677862010
 C       -6.121266753    11.746215604    -2.079919158
 H       -4.262992191    14.241824327     1.439920611
 C       -4.744955824    12.456713089     2.574643637
 C       -2.428373702    13.216320253     2.000441045
 H       -0.114940111    -1.936000400    -1.515088591
 C       -2.134606846    -1.140767001    -1.576489329
 C       -0.188464311    -0.227705781    -2.855715245
 H       -1.780768871    -0.910991789     1.440504597
 C       -0.186070105    -2.367923644     1.639897009
 C       -0.303597700    -0.175095343     2.848644728
 H       -7.949622294    33.428695679     2.823423152
 H       -8.897322008    32.894042743     4.203407246
 H       -9.641878263    32.942016371     2.612245044
 H       -9.088968344    29.242225865     3.446199642
 H      -10.328273234    30.430142645     3.005583524
 H       -9.525458839    30.524328256     4.567601756
 H       -5.413617476    32.200662658     2.581460702
 H       -4.393812575    32.603950070     1.209282882
 H       -4.690311310    30.914745304     1.592512169
 H       -6.677210711    31.734546285    -1.586073562
 H       -5.452848553    30.636301368    -0.923546878
 H       -5.099629854    32.348567096    -1.115770504
 H       -4.749699270    17.291828711     2.873897877
 H       -6.417309472    16.739318137     2.886859659
 H       -6.075936625    18.440590541     2.612960245
 H       -7.191197137    16.941611811    -0.748257335
 H       -7.571156125    18.207045790     0.434117856
 H       -7.779004672    16.514513851     0.854041654
 H       -2.876447301    15.970819301     1.354066733
 H       -1.248054676    16.625375984     1.296404767
 H       -2.045664027    16.184832698    -0.204061847
 H       -1.974925178    20.008511128    -0.089055726
 H       -1.521888004    18.605712785    -1.073609628
 H       -0.739356653    18.895283445     0.475581512
 H       -6.533818331    14.256261736     0.306950511
 H       -7.633391046    13.676925015    -0.933036715
 H       -6.137829677    14.467481487    -1.412350113
 H       -5.727353058    10.723358281    -2.155860406
 H       -5.679217436    12.331907438    -2.899478579
 H       -7.196535018    11.675777504    -2.294885633
 H       -5.819562479    12.477226614     2.352747388
 H       -4.624869939    12.943166657     3.553603306
 H       -4.453000165    11.406863849     2.718768463
 H       -1.756579849    13.757742206     1.319675697
 H       -2.004018659    12.213166735     2.151716176
 H       -2.362496676    13.724944264     2.972505770
 H       -2.508048932    -1.716081454    -0.719951270
 H       -2.415853523    -1.710794622    -2.473996704
 H       -2.699854666    -0.199325975    -1.623955683
 H        0.898079593    -0.108359695    -2.955031031
 H       -0.644898997     0.765144843    -2.977984190
 H       -0.512087996    -0.823313919    -3.721278535
 H       -0.465593971    -2.974802055     0.769054114
 H       -0.648217164    -2.852132907     2.512486524
 H        0.899407930    -2.460370508     1.777567024
 H       -0.659499019     0.864887620     2.874114879
 H        0.774753575    -0.160516818     3.055240339
 H       -0.775353689    -0.681749024     3.702585484

