187   

Si        0.000000000     0.000000000     0.000000000
 C        1.865506623     0.000000000     0.000000000
 C       -0.675055357     1.712809666     0.000000000
 C        0.151847269     2.814551347     0.240700122
 C       -0.370640725     4.107749756     0.238255084
 C       -1.730047327     4.328753952     0.002980090
 C       -2.558075019     3.223542488    -0.235167569
 C       -2.038829661     1.931914120    -0.237645380
 C       -2.319499578     5.663617367    -0.008813351
 C       -1.636741292     6.802105164     0.200338170
 C       -2.223696614     8.137913135     0.189075217
 C       -1.391224996     9.240620136     0.423304765
 C       -1.905420674    10.534738419     0.422460045
 C       -3.270253507    10.753720090     0.201090305
 C       -4.104788799     9.654868958    -0.031071065
 C       -3.583928415     8.361652057    -0.041579259
Si       -3.971405723    12.454054339     0.195556396
 C       -5.745750458    12.363837644     0.623382707
 C       -6.748651793    12.936321896    -0.054244462
 C       -8.157382952    12.832910801     0.332297973
 C       -9.124038585    13.476522755    -0.456243329
 C      -10.468191886    13.408752486    -0.132989344
 C      -10.892317088    12.658942012     0.984653302
 C       -9.928067627    12.019613305     1.779014419
 C       -8.578149089    12.128889993     1.462047697
 N      -12.276878546    12.623149994     1.270197094
 C      -13.141961983    12.191465747     0.146838429
 C      -12.664973362    12.035278911     2.562743269
 C      -12.545502683    11.134153803    -0.796758011
 C      -12.204950207     9.810741515    -0.087537780
 N      -11.209665650     8.999778526    -0.815168367
 C      -11.537601500     8.637389197    -2.135694583
 C      -12.874150111     8.317689718    -2.458664762
 C      -13.216485110     7.958871580    -3.752002373
 C      -12.244675669     7.851832152    -4.757313089
 C      -10.917136780     8.137884331    -4.427813590
 C      -10.559569958     8.519090966    -3.140923955
 C       -9.825695432     9.442876534    -0.573350118
 C      -12.661338969     7.469029568    -6.107424903
 C      -11.821851365     7.336414030    -7.142669479
Si      -12.285771229     6.862244722    -8.845130639
 C      -11.556105913     8.050597836   -10.045219118
 C      -11.116927995     9.309969574    -9.619046762
 C      -10.564767487    10.208456761   -10.528830549
 C      -10.447444161     9.875745020   -11.884513886
 C      -10.892417245     8.619686456   -12.307235790
 C      -11.441795599     7.716045431   -11.399038187
 C       -9.862105369    10.850757677   -12.798935603
 C       -9.689225836    10.655917712   -14.117291980
 C       -9.103960465    11.630668072   -15.031902959
 C       -8.658612017    12.886563432   -14.611479366
 C       -8.105096485    13.788144699   -15.520528382
 C       -7.978980981    13.449447196   -16.871344080
 C       -8.424441564    12.190114375   -17.295454610
 C       -8.981784854    11.294688013   -16.386992553
Si       -7.250714270    14.627974521   -18.083561299
 C       -6.387802969    16.044650084   -17.230128964
 C       -6.021851358    13.673235199   -19.179939866
 C       -8.630148530    15.329912779   -19.191628388
 C      -11.606635987     5.119343926    -9.195506597
 C      -14.175066349     6.836775944    -9.060876749
 C       -3.085266261    13.528953066     1.490218132
 C       -3.710689255    13.223565882    -1.523264709
 C       -0.660272264    -0.897581076    -1.543107434
 C       -0.609338308    -0.926212711     1.547213617
 H        1.222796843     2.704947167     0.432537484
 H        0.295370683     4.948377640     0.424197111
 H       -3.619888067     3.373609681    -0.421748898
 H       -2.732563349     1.109190920    -0.432841894
 H       -3.395182407     5.687262553    -0.206532169
 H       -0.560948745     6.777257744     0.397614177
 H       -0.329294551     9.087191395     0.605508595
 H       -1.208013910    11.356823046     0.604698911
 H       -5.178946948     9.769070299    -0.211710105
 H       -4.251211022     7.522302322    -0.229016549
 H       -5.939178314    11.778169671     1.538279976
 H       -6.590958729    13.531683982    -0.962768876
 H       -8.813456303    14.047187749    -1.332223417
 H      -11.203507440    13.939790061    -0.733297111
 H      -10.219596327    11.439364745     2.648815805
 H       -7.844213180    11.639226190     2.104518312
 H      -13.730667596    12.257714210     2.749376325
 H      -12.094474703    12.524721541     3.372958423
 H      -12.518302551    10.946455836     2.633500326
 H       -9.686667282     9.673787373     0.497848343
 H       -9.540336120    10.341210280    -1.146253509
 H       -9.131007259     8.619431895    -0.817206724
 H      -13.644201105     8.354891366    -1.693855587
 H      -14.258955986     7.740242119    -3.984626883
 H      -10.140071314     8.062951929    -5.190535505
 H       -9.517049670     8.737752666    -2.930459910
 H      -13.742897375     7.301832979    -6.194003724
 H      -10.738358206     7.502216908    -7.018690326
 H      -11.188910982     9.625730072    -8.573102781
 H      -10.223653797    11.181104396   -10.179341034
 H      -10.812476529     8.336552563   -13.354998732
 H      -11.770307891     6.748200191   -11.787597972
 H       -9.557837974    11.791545664   -12.330730504
 H       -9.993358874     9.715131643   -14.585293608
 H       -8.741523925    13.173158772   -13.564707393
 H       -7.775462163    14.755815391   -15.132231920
 H       -8.350781591    11.870423803   -18.338769786
 H       -9.323589472    10.322052916   -16.735650967
 H      -14.113660741    11.832060883     0.549262964
 H      -13.373048982    13.113214964    -0.441295900
 H      -13.252410607    10.943229037    -1.628069746
 H      -11.635337968    11.534662115    -1.288635627
 H      -11.805340332    10.004539779     0.933437507
 H      -13.121387660     9.196784143     0.058071620
 H        2.263355152    -1.029927264    -0.036640298
 H        2.274733552     0.482311389     0.904937890
 H        2.261744218     0.539633169    -0.879323751
 H       -5.915283749    16.722360455   -17.963450003
 H       -5.591538236    15.676090151   -16.558102681
 H       -7.088522103    16.646088629   -16.624992942
 H       -6.626667334    12.872118316   -19.696483083
 C       -5.365396505    14.542158774   -20.267465798
 C       -4.920030263    12.976200274   -18.361432639
 H       -8.127182801    16.084767900   -19.862764815
 C       -9.302768745    14.272344636   -20.084934296
 C       -9.720456938    16.059362038   -18.385390216
 H      -11.937799980     4.861469100   -10.242809731
 C      -10.068898114     5.067710840    -9.157794534
 C      -12.169052003     4.051494446    -8.241100948
 H      -14.571657730     6.176828076    -8.235728686
 C      -14.802113724     8.234173511    -8.902491867
 C      -14.630998227     6.241406025   -10.404986321
 H       -2.003401974    13.570812288     1.171717815
 C       -3.621459413    14.970249438     1.543956550
 C       -3.141815772    12.918956903     2.902134412
 H       -4.242577001    14.218588047    -1.503305004
 C       -2.229927403    13.481612094    -1.854276312
 C       -4.327103393    12.370848961    -2.647368329
 H       -1.784995854    -0.893185967    -1.445215610
 C       -0.299306924    -0.167301345    -2.849334984
 C       -0.201818741    -2.363215025    -1.644510525
 H       -0.106453311    -1.935881711     1.514459662
 C       -0.192596636    -0.227538269     2.854591669
 C       -2.131296349    -1.153725707     1.574041205
 H       -6.090435848    15.019874239   -20.938971846
 H       -4.719810069    13.920662764   -20.905014494
 H       -4.721423302    15.330241263   -19.855103779
 H       -5.314964868    12.291510662   -17.597144667
 H       -4.247871640    13.682725287   -17.856661575
 H       -4.287991607    12.366210218   -19.022445873
 H       -8.602947486    13.760645254   -20.757595178
 H      -10.054104588    14.749826236   -20.730801769
 H       -9.839333067    13.505658263   -19.508390988
 H       -9.333856503    16.887660759   -17.777797915
 H      -10.277684512    15.387803169   -17.716358561
 H      -10.462512470    16.499031658   -19.067159192
 H       -9.592290591     5.775962536    -9.850202382
 H       -9.718297152     4.068380861    -9.452462843
 H       -9.658453700     5.254975667    -8.155957564
 H      -13.262973993     3.969489941    -8.275102676
 H      -11.880663955     4.219911540    -7.193372400
 H      -11.777763907     3.060520019    -8.511920513
 H      -14.558470496     8.720332078    -7.947919368
 H      -15.897994991     8.163368277    -8.942777791
 H      -14.508407106     8.925230958    -9.705927971
 H      -14.306082413     5.203985638   -10.554737541
 H      -14.293354335     6.829031083   -11.270252128
 H      -15.729486706     6.228134822   -10.456099735
 H       -3.533207947    15.503739543     0.588730761
 H       -3.050299792    15.557282924     2.277522355
 H       -4.673313873    15.024672158     1.859380615
 H       -2.740150940    11.897062815     2.952565993
 H       -4.158294879    12.897000939     3.318431812
 H       -2.537743493    13.520285995     3.596611374
 H       -1.740943768    14.172168799    -1.155383273
 H       -2.142201296    13.941004442    -2.849782620
 H       -1.631954268    12.559902830    -1.890809309
 H       -5.398853171    12.171358474    -2.512263018
 H       -3.825348587    11.399654113    -2.768253520
 H       -4.228224716    12.889118814    -3.611630910
 H       -0.646994216     0.875498771    -2.873598979
 H       -0.773753621    -0.668498793    -3.705058395
 H        0.779401747    -0.161081030    -3.054164855
 H       -0.488591944    -2.969865455    -0.775861067
 H        0.883174822    -2.464287219    -1.779710495
 H       -0.665710862    -2.841495405    -2.519489408
 H        0.892822226    -0.098659657     2.954266346
 H       -0.511322213    -0.826414659     3.719786917
 H       -0.657543922     0.761322903     2.977102837
 H       -2.503984595    -1.715428905     0.708211939
 H       -2.701528327    -0.216459892     1.640090692
 H       -2.406901996    -1.741755223     2.461697966

