187   

Si        0.000000000     0.000000000     0.000000000
 C        1.864308336     0.000000000     0.000000000
 C       -0.660182809     1.718257134     0.000000000
 C       -0.061045336     2.703636151     0.793399277
 C       -0.554875735     4.007666711     0.799241592
 C       -1.661817787     4.356843065     0.020214735
 C       -2.262859800     3.366341064    -0.767285784
 C       -1.772222164     2.063809544    -0.776513740
 C       -2.212898386     5.707032180    -0.005585855
 C       -1.735775436     6.747246428     0.696647645
 C       -2.292705317     8.095887935     0.665686406
 C       -1.680815896     9.075855519     1.457305559
 C       -2.163410605    10.380768472     1.472417473
 C       -3.317157989    10.725916198     0.755878298
 C       -3.949347710     9.739318072    -0.009215616
 C       -3.439670868     8.440817094    -0.055742926
Si       -3.925435856    12.463461217     0.800097903
 C       -5.634337684    12.666626972     1.413934484
 C       -6.596119085    13.367230588     0.797823733
 C       -7.961887092    13.522502420     1.300052003
 C       -8.874103758    14.283988652     0.556613220
 C      -10.180478816    14.465610558     0.982706820
 C      -10.638158896    13.843086350     2.164271766
 C       -9.722936904    13.067134793     2.909026213
 C       -8.410339025    12.926200511     2.482554425
 N      -11.946639368    14.008903696     2.615269641
 C      -12.933652230    14.714561380     1.793189220
 C      -12.484692693    13.026672709     3.562990773
 C      -13.342941178    13.995433270     0.497041237
 C      -14.350373247    12.862601262     0.757107840
 N      -14.508366534    11.945780617    -0.385015369
 C      -13.366270745    11.229996213    -0.796727227
 C      -12.299261975    10.996319240     0.096043326
 C      -11.178658331    10.292095394    -0.313526748
 C      -11.093714251     9.758800540    -1.606874816
 C      -12.163491093     9.965193288    -2.481660132
 C      -13.287991176    10.679461064    -2.090031613
 C      -15.351968101    12.506981547    -1.454835611
 C       -9.888633641     9.023145612    -1.990356654
 C       -9.701936361     8.472890065    -3.197313030
Si       -8.216765094     7.547242386    -3.719922495
 C       -7.373093873     6.666965421    -2.343624745
 C       -7.980772947     6.488646901    -1.097199795
 C       -7.316599308     5.816597589    -0.071406802
 C       -6.050718614     5.265053004    -0.282308267
 C       -5.452385154     5.428790643    -1.538942173
 C       -6.099363083     6.123338693    -2.556012192
 C       -5.320168654     4.554650896     0.760439054
 C       -5.773347304     4.327519518     2.004131296
 C       -5.026755587     3.613700477     3.035288086
 C       -3.748794092     3.090165084     2.823422478
 C       -3.076236887     2.415361197     3.842263906
 C       -3.666141117     2.258380832     5.100425276
 C       -4.948040610     2.782891031     5.315556225
 C       -5.619844634     3.447560266     4.294045419
Si       -2.803535693     1.373085328     6.464085111
 C       -0.963562502     1.293352443     6.171844029
 C       -3.158691185     2.284277218     8.098210102
 C       -3.497274763    -0.393887422     6.600434943
 C       -8.751729307     6.296743575    -5.048713160
 C       -6.972110984     8.774111373    -4.477503093
 C       -2.835191209    13.519735997     1.960808935
 C       -3.743997936    13.186174508    -0.955591188
 C       -0.652002942    -0.945995624    -1.518172646
 C       -0.655468961    -0.882478465     1.554112101
 H        0.806650359     2.490915043     1.423817298
 H       -0.069581223     4.755957954     1.423261133
 H       -3.119550555     3.611036682    -1.393833858
 H       -2.290501295     1.336717099    -1.408164826
 H       -3.068656450     5.847311775    -0.673641754
 H       -0.875962297     6.622338973     1.361623233
 H       -0.805053472     8.823462500     2.051763909
 H       -1.612996479    11.104058229     2.080962787
 H       -4.865540528     9.943142997    -0.573199997
 H       -3.956146169     7.689886138    -0.654465990
 H       -5.825337522    12.157393031     2.372181849
 H       -6.432433348    13.884732819    -0.157391946
 H       -8.552446404    14.751815169    -0.375058125
 H      -10.844401707    15.084243074     0.388922798
 H      -10.031400541    12.582037191     3.828409165
 H       -7.721661272    12.327658409     3.081576444
 H      -13.565938968    13.171760316     3.716325277
 H      -11.997667051    13.168206669     4.547344234
 H      -12.316712602    11.984030824     3.239026717
 H      -16.167849428    13.108184102    -1.021636121
 H      -15.828769604    11.678593296    -2.010199825
 H      -14.793909688    13.138388450    -2.165093237
 H      -12.332186711    11.382264529     1.110834225
 H      -10.352607429    10.152946847     0.386963056
 H      -12.124943478     9.558331488    -3.493109875
 H      -14.099493149    10.809098937    -2.798113694
 H       -9.134623135     8.983121769    -1.190704620
 H      -10.470590496     8.556853585    -3.981907036
 H       -8.987825643     6.860354116    -0.882212547
 H       -7.802224886     5.715181645     0.897234448
 H       -4.474467828     4.993011141    -1.737159240
 H       -5.574385602     6.225689815    -3.510183442
 H       -4.331328817     4.188784159     0.464955536
 H       -6.758811771     4.685191969     2.314285935
 H       -3.259417475     3.207479427     1.854550096
 H       -2.079193358     2.026751723     3.614588898
 H       -5.459762766     2.690418131     6.277086374
 H       -6.615100717     3.845979021     4.479702475
 H      -13.832259629    14.919864740     2.418903344
 H      -12.511279380    15.719266058     1.544279656
 H      -13.768967748    14.722773391    -0.217086338
 H      -12.440697622    13.585539135    -0.006841584
 H      -14.046265315    12.254198956     1.639369172
 H      -15.348539818    13.281060285     1.014489489
 H        2.263679546    -1.029571805    -0.000787897
 H        2.277625712     0.518709755     0.882249787
 H        2.256270527     0.509711825    -0.899271905
 H       -0.445964156     0.814657184     7.021656031
 H       -0.540492117     2.307593370     6.052332551
 H       -0.717026655     0.716747216     5.263265899
 H       -4.277795531     2.243864577     8.239595472
 C       -2.507285873     1.621382417     9.325186147
 C       -2.743156207     3.765738587     8.048900174
 H       -2.909578054    -0.891819021     7.424481431
 C       -4.987555228    -0.435591252     6.984403917
 C       -3.299122160    -1.211364277     5.311093599
 H       -9.242244627     6.904499937    -5.863199302
 C       -7.582792904     5.518474162    -5.677034814
 C       -9.787210506     5.291601916    -4.512419818
 H       -6.144151923     8.147197549    -4.917484145
 C       -7.574229850     9.628828372    -5.605955189
 C       -6.355558463     9.702848674    -3.416340089
 H       -1.767643613    13.311316527     1.664064414
 C       -3.080409300    15.031905837     1.806054576
 C       -3.009773246    13.146430425     3.444293113
 H       -4.119509981    14.248050875    -0.885639146
 C       -2.282153433    13.226788551    -1.436389524
 C       -4.587059946    12.451476944    -2.012536575
 H       -1.778125944    -0.891158348    -1.460006575
 C       -0.211688554    -0.308520961    -2.848836183
 C       -0.258046401    -2.434359127    -1.529925622
 H       -0.375300050    -1.968263097     1.432400370
 C       -0.007598905    -0.369062909     2.852268900
 C       -2.185474304    -0.791874665     1.691871958
 H       -2.813502536     0.577218917     9.468747739
 H       -2.800613782     2.156065965    10.240294414
 H       -1.410077736     1.647090425     9.293678629
 H       -3.211276605     4.320182526     7.222408124
 H       -1.657113538     3.903918857     7.965109145
 H       -3.049821074     4.275166315     8.973294936
 H       -5.203203403     0.044257729     7.947285095
 H       -5.322201606    -1.478489624     7.080936246
 H       -5.636389866     0.025165924     6.225726228
 H       -2.246488037    -1.304856121     5.013492984
 H       -3.854303344    -0.797027653     4.456490899
 H       -3.671006949    -2.235929731     5.452811614
 H       -6.830282764     6.164355929    -6.146607304
 H       -7.956869260     4.856780891    -6.471863453
 H       -7.067425118     4.867435125    -4.956742939
 H      -10.684022977     5.768932452    -4.093644698
 H       -9.376076998     4.626992966    -3.738946415
 H      -10.135955766     4.638558688    -5.324694858
 H       -7.975597112     9.035328081    -6.436764293
 H       -6.800425466    10.278450331    -6.039644505
 H       -8.374011527    10.296251587    -5.254572108
 H       -5.831556664     9.157816705    -2.617602388
 H       -7.096868752    10.360419784    -2.938745194
 H       -5.609954186    10.362871665    -3.882020819
 H       -2.862872284    15.406717757     0.797813597
 H       -2.424824769    15.591072195     2.488722317
 H       -4.109168126    15.327090691     2.057422396
 H       -2.867103420    12.078110111     3.654751177
 H       -3.997155673    13.429166558     3.836529586
 H       -2.270379605    13.682027202     4.056391941
 H       -1.625652134    13.822499273    -0.789466357
 H       -2.226365035    13.683815781    -2.434617486
 H       -1.835224017    12.226706782    -1.531534517
 H       -5.647603413    12.351911474    -1.742295260
 H       -4.202725533    11.444379742    -2.230502576
 H       -4.560766340    13.002488708    -2.963073984
 H       -0.481149572     0.752935741    -2.938131268
 H       -0.697591212    -0.821019435    -3.691431299
 H        0.870024290    -0.388179661    -3.022252722
 H       -0.620884216    -2.987136633    -0.653799410
 H        0.826364999    -2.591250233    -1.599636206
 H       -0.697046112    -2.931299834    -2.407434339
 H        1.082861623    -0.489930077     2.871184257
 H       -0.392743483    -0.938580399     3.711416038
 H       -0.231723796     0.689251950     3.050082346
 H       -2.729242488    -1.184220760     0.823438379
 H       -2.539656087     0.235764908     1.867971949
 H       -2.521999283    -1.383224686     2.556005881

