187   

Si        0.000000000     0.000000000     0.000000000
 C        1.865107148     0.000000000     0.000000000
 C       -0.677519937     1.710277532     0.000000000
 C        0.111109466     2.803796110    -0.371006006
 C       -0.417806315     4.094465281    -0.365655061
 C       -1.743782635     4.319186270     0.012043886
 C       -2.534379209     3.221275199     0.377094994
 C       -2.012368477     1.931636091     0.364766914
 C       -2.344523311     5.646749489     0.034862894
 C       -1.712502934     6.785049638    -0.295843673
 C       -2.334816736     8.103859148    -0.265378224
 C       -1.572287665     9.219251878    -0.633164161
 C       -2.126488040    10.496813868    -0.618506767
 C       -3.444702046    10.691679161    -0.188100523
 C       -4.204266388     9.580021496     0.191901923
 C       -3.657184716     8.299392643     0.142666959
Si       -4.180651830    12.375765452    -0.166904562
 C       -5.622610327    12.513007999     0.948533105
 C       -5.808245909    11.798125042     2.067297736
 C       -6.976601253    11.933368510     2.939083346
 C       -7.077135798    11.137732932     4.088732215
 C       -8.168813384    11.236709976     4.939765611
 C       -9.231816211    12.111454004     4.635998123
 C       -9.133492667    12.909234464     3.476190150
 C       -8.014940122    12.828057507     2.661207593
 N      -10.353704696    12.244099227     5.465584067
 C      -10.534041892    11.332604276     6.600005038
 C      -11.614392340    12.649603627     4.822446306
 C      -11.026446518     9.927520842     6.213701398
 C      -11.525579224     9.140739272     7.438851616
 N      -10.493844869     8.755730743     8.423248432
 C       -9.333790560     8.171191772     7.846651787
 C       -9.504069636     6.956557367     7.154317408
 C       -8.415005159     6.333241334     6.568465579
 C       -7.127038372     6.880863012     6.675031300
 C       -6.962886045     8.076011404     7.378619359
 C       -8.049062198     8.717936165     7.965508775
 C      -10.254896350     9.762614368     9.469278277
 C       -6.011775973     6.178744415     6.035383630
 C       -4.743283867     6.605167607     6.070078003
Si       -3.307564776     5.778239669     5.294506530
 C       -2.383541890     7.025949358     4.309661545
 C       -2.942300713     8.290977192     4.089234721
 C       -2.251906267     9.242571876     3.345576617
 C       -0.984491264     8.958067864     2.821149466
 C       -0.430161560     7.694587063     3.040206961
 C       -1.127385311     6.731785186     3.769358904
 C       -0.313802686     9.997051083     2.051307553
 C        0.889901815     9.888834542     1.464814283
 C        1.513200837    10.967125616     0.703936915
 C        0.894259617    12.208737010     0.527516200
 C        1.514094403    13.218713241    -0.204014013
 C        2.771338332    13.007439617    -0.782480734
 C        3.390364343    11.763521585    -0.614163166
 C        2.765718885    10.754398850     0.116119227
Si        3.558007121    14.366445100    -1.741830333
 C        3.256468486    16.014490483    -0.921400895
 C        5.426803017    14.054092709    -1.913019553
 C        2.786610556    14.378432040    -3.483386916
 C       -2.164676263     5.100918692     6.654801750
 C       -3.860304253     4.338026881     4.186462371
 C       -2.857192222    13.615878617     0.422134024
 C       -4.713168955    12.827662516    -1.934264422
 C       -0.625158132    -0.928620741    -1.538340802
 C       -0.655142629    -0.890044724     1.551772109
 H        1.155805985     2.688133295    -0.670920542
 H        0.215333549     4.930045415    -0.658450777
 H       -3.572218988     3.376568900     0.668652204
 H       -2.679130283     1.114030147     0.651742876
 H       -3.393425762     5.667158365     0.347507167
 H       -0.665118354     6.775385604    -0.609167517
 H       -0.535745882     9.090658163    -0.942258734
 H       -1.486670273    11.324194421    -0.939918776
 H       -5.243176945     9.670174682     0.526182145
 H       -4.269139774     7.449951478     0.440542858
 H       -6.358746363    13.267410675     0.630571462
 H       -5.088969294    11.045528270     2.420351885
 H       -6.282897712    10.427299678     4.326782828
 H       -8.203623862    10.607308611     5.825351125
 H       -9.923043686    13.607764114     3.220221729
 H       -7.958599610    13.468699403     1.779773139
 H      -12.466251517    12.520064625     5.508682651
 H      -11.826275547    12.083656085     3.899830431
 H      -11.560416053    13.725922419     4.573554939
 H      -11.210382060     9.980259423     9.977394702
 H       -9.825626983    10.711202036     9.113888379
 H       -9.577324178     9.335180488    10.231104834
 H      -10.494082901     6.512023128     7.085438399
 H       -8.561968010     5.399628196     6.025900881
 H       -5.971707103     8.522316903     7.473075228
 H       -7.889388692     9.649281295     8.500633084
 H       -6.317921356     5.262496174     5.515149429
 H       -4.470274303     7.524633683     6.615977059
 H       -3.929313883     8.568541790     4.472935819
 H       -2.706605250    10.216162065     3.165960133
 H        0.548151151     7.449420871     2.632485021
 H       -0.654097938     5.754224196     3.896264286
 H       -0.886332867    10.929233308     1.963867857
 H        1.471718486     8.968128492     1.535930919
 H       -0.082680853    12.401521576     0.971325308
 H        0.981183262    14.169066072    -0.302129380
 H        4.369560064    11.540802468    -1.045563858
 H        3.262455971     9.793677790     0.233357278
 H       -9.567854301    11.263421219     7.153428233
 H      -11.253880779    11.813075572     7.303500436
 H      -11.842458253    10.000353714     5.470772518
 H      -10.217739111     9.369702541     5.700353258
 H      -12.324163762     9.708707376     7.963634794
 H      -12.003122633     8.192987877     7.090348416
 H        2.263180270    -1.028859328     0.057029463
 H        2.260424083     0.557832311     0.868253458
 H        2.274984934     0.464731563    -0.913717387
 H        3.764973823    16.829412101    -1.466489468
 H        3.643492469    16.014261096     0.114222985
 H        2.181949463    16.262333381    -0.875843450
 H        5.528975759    13.037951410    -2.394101197
 C        6.137247193    15.074809502    -2.820817961
 C        6.148557916    14.011187572    -0.553688743
 H        3.247185462    15.257581588    -4.018820025
 C        3.101251725    13.106394777    -4.291071043
 C        1.259991629    14.579891349    -3.457106982
 H       -1.295896949     4.621994450     6.115853600
 C       -1.604803352     6.210717197     7.562340469
 C       -2.835454948     4.026893364     7.528636603
 H       -4.513572524     3.685535277     4.835667740
 C       -4.700175451     4.815382213     2.987068800
 C       -2.695399697     3.477915299     3.668546631
 H       -1.935668738    13.404886403    -0.194328242
 C       -3.248396066    15.086494712     0.194406230
 C       -2.502369660    13.421934561     1.907386529
 H       -5.150275526    13.865584829    -1.874715042
 C       -3.539048660    12.858973581    -2.928871558
 C       -5.801445531    11.881927016    -2.472809523
 H       -0.148722138    -1.950345326    -1.494607839
 C       -2.152893975    -1.115376545    -1.563261835
 C       -0.189748298    -0.253744500    -2.852035800
 H       -1.775916449    -0.943097119     1.427829890
 C       -0.130583595    -2.329115481     1.700388414
 C       -0.361955842    -0.111713331     2.847626109
 H        5.728866467    15.109149465    -3.839168330
 H        7.199111197    14.808227077    -2.925232172
 H        6.115807571    16.095745128    -2.417255187
 H        5.722358211    13.278064070     0.145382549
 H        6.157374047    14.984250902    -0.044145335
 H        7.201062654    13.726667200    -0.694331654
 H        4.175711908    12.936168419    -4.435602772
 H        2.665061696    13.182010783    -5.297624400
 H        2.676302882    12.198262112    -3.839881146
 H        0.951611328    15.509214179    -2.961646511
 H        0.728843726    13.746765891    -2.973593243
 H        0.871860835    14.636962508    -4.484287086
 H       -1.071222771     6.996755654     7.009032437
 H       -0.877238000     5.787502344     8.269477999
 H       -2.378213496     6.698127224     8.170993049
 H       -3.185125574     3.157142532     6.957608708
 H       -3.689322015     4.413423116     8.102749013
 H       -2.118634162     3.641068490     8.267587293
 H       -5.577728407     5.411571419     3.272401928
 H       -5.082862881     3.951076243     2.427199987
 H       -4.113836859     5.418216067     2.277222201
 H       -2.068185428     3.058784525     4.464679324
 H       -2.037227902     4.022224322     2.973229135
 H       -3.082849241     2.618521760     3.101404302
 H       -3.430029006    15.330626798    -0.859861695
 H       -2.435419100    15.747887935     0.527368139
 H       -4.138393180    15.386722559     0.763697014
 H       -2.203613135    12.395064867     2.159308454
 H       -3.331074735    13.691276206     2.578949809
 H       -1.659788193    14.071060574     2.184452869
 H       -2.752767932    13.573647221    -2.653237890
 H       -3.896406653    13.162525101    -3.923091495
 H       -3.066764300    11.874403867    -3.062053270
 H       -6.701276226    11.848295083    -1.843498940
 H       -5.445847103    10.848499587    -2.596270868
 H       -6.132225759    12.213360076    -3.467027731
 H       -2.537626011    -1.676707914    -0.702547924
 H       -2.446772853    -1.685785902    -2.456408424
 H       -2.698659633    -0.162486010    -1.616293180
 H        0.898540302    -0.152088853    -2.951236947
 H       -0.631237906     0.744517421    -2.985427415
 H       -0.521439172    -0.853597033    -3.711676853
 H       -0.357098676    -2.966392921     0.835906297
 H       -0.600856774    -2.812174436     2.569195217
 H        0.952766877    -2.373914263     1.873905012
 H       -0.764076717     0.911993658     2.838870679
 H        0.710362064    -0.043267602     3.073531957
 H       -0.826745747    -0.618751547     3.704990852

