187   

Si        0.000000000     0.000000000     0.000000000
 C        1.865100893     0.000000000     0.000000000
 C       -0.669245601     1.715164287     0.000000000
 C        0.092280270     2.771682486    -0.511197497
 C       -0.410345790     4.072131801    -0.513288213
 C       -1.684756051     4.346062228    -0.009530893
 C       -2.449066878     3.286412616     0.495751230
 C       -1.950741313     1.986110442     0.496826393
 C       -2.248667031     5.691466245     0.007252261
 C       -1.616714132     6.785897976    -0.449696423
 C       -2.170753965     8.135191297    -0.437827316
 C       -3.444041313     8.420139236     0.063590420
 C       -3.935263836     9.724298996     0.055954580
 C       -3.170862475    10.769033976    -0.476124013
 C       -1.900355114    10.484637114    -0.990317773
 C       -1.408023035     9.182174629    -0.971178846
Si       -3.831230988    12.486895429    -0.480130841
 C       -2.550158846    13.648279477    -1.074415005
 C       -2.755127476    14.560339111    -2.033435409
 C       -1.745153574    15.497968656    -2.523095962
 C       -2.117044185    16.396981747    -3.537448756
 C       -1.211472995    17.309231288    -4.045184046
 C        0.126639122    17.305356354    -3.595817941
 C        0.501918693    16.408107093    -2.585411147
 C       -0.438053490    15.537150004    -2.038881301
 N        1.006834902    18.264715743    -4.153814267
 C        1.093090214    18.260676699    -5.626857106
 C        2.312720578    18.415010242    -3.493368373
 C        2.003500174    17.184604891    -6.252518230
 C        1.449660728    15.754451592    -6.130927302
 N        0.103882178    15.583939242    -6.733510082
 C       -0.504376200    14.335234661    -6.439175463
 C       -0.492518031    13.863252057    -5.110924084
 C       -1.074882640    12.650676787    -4.783351518
 C       -1.744543801    11.885785891    -5.750295048
 C       -1.786002007    12.368947463    -7.059381009
 C       -1.183147423    13.574334455    -7.405835585
 C        0.044972063    15.999087454    -8.145621079
 C       -2.343456263    10.609849425    -5.351712065
 C       -3.005603356     9.795542260    -6.184001757
Si       -3.766953079     8.196287711    -5.725859630
 C       -3.240132348     6.886873702    -6.909689597
 C       -2.175843807     7.105105665    -7.792523046
 C       -1.783982472     6.109580134    -8.684439094
 C       -2.435074170     4.869596876    -8.706350800
 C       -3.492328801     4.651995609    -7.817921497
 C       -3.890899904     5.648109751    -6.928279012
 C       -1.989041767     3.857825740    -9.658494564
 C       -2.531315343     2.634678942    -9.784314778
 C       -2.086992226     1.621554279   -10.735546254
 C       -1.031036174     1.833684728   -11.625606580
 C       -0.639377581     0.836338049   -12.518658303
 C       -1.300888172    -0.395238862   -12.544491006
 C       -2.361118889    -0.610378943   -11.653390273
 C       -2.746555990     0.385167770   -10.760126079
Si       -0.797726258    -1.722658358   -13.716061450
 C        0.384970864    -1.085461457   -15.010500825
 C        0.051001502    -3.131086514   -12.756850671
 C       -2.368376165    -2.411744188   -14.541553956
 C       -3.190150366     7.690402679    -3.986197042
 C       -5.663237234     8.311875613    -5.769798996
 C       -5.332262594    12.565024007    -1.648615833
 C       -4.369429110    12.954585817     1.279174952
 C       -0.627626581    -0.896235713    -1.557604242
 C       -0.653606419    -0.924350096     1.530276389
 H        1.096035305     2.619383289    -0.917982234
 H        0.203343518     4.876069979    -0.915947877
 H       -3.444774793     3.477731658     0.890958112
 H       -2.593838432     1.199533977     0.900648723
 H       -3.256076818     5.762252713     0.426772883
 H       -0.604000767     6.710339132    -0.858765238
 H       -4.060377639     7.622833347     0.473776460
 H       -4.931241673     9.888693724     0.476663850
 H       -1.262895719    11.261541794    -1.424184962
 H       -0.418144150     8.978594682    -1.375841858
 H       -1.578993093    13.559736383    -0.565042115
 H       -3.720940357    14.675728947    -2.547473491
 H       -3.135425590    16.381508671    -3.927538206
 H       -1.523873355    18.019161822    -4.808276354
 H        1.520500310    16.384651997    -2.213461353
 H       -0.132442954    14.864579008    -1.237207408
 H        2.848193203    19.269017785    -3.941958284
 H        2.959280477    17.525786724    -3.556529527
 H        2.149949967    18.658562293    -2.427704238
 H        0.408865068    17.035071165    -8.243330419
 H       -1.009071749    16.009819736    -8.477950179
 H        0.629554225    15.357196874    -8.823165997
 H       -0.025397620    14.459572225    -4.327093381
 H       -1.034689614    12.303465935    -3.749189464
 H       -2.298626380    11.797054295    -7.833847152
 H       -1.233912866    13.900866530    -8.439080816
 H       -2.196016904    10.380838369    -4.286354613
 H       -3.146923256    10.061314437    -7.244063270
 H       -1.624693291     8.050626466    -7.812963108
 H       -0.958790403     6.298991343    -9.367984272
 H       -4.013782902     3.696888767    -7.813511189
 H       -4.723645344     5.419619543    -6.257018757
 H       -1.151668029     4.163434958   -10.292505362
 H       -3.368745588     2.329789563    -9.149829859
 H       -0.501950305     2.784906986   -11.628241801
 H        0.193884237     1.060942191   -13.190139842
 H       -2.915884751    -1.552522494   -11.629159779
 H       -3.571703690     0.199245522   -10.075249418
 H        0.064391397    18.152995215    -6.046571094
 H        1.452951685    19.270696156    -5.930885495
 H        2.179619292    17.439689006    -7.314726487
 H        3.003616781    17.211459227    -5.778056733
 H        2.177612655    15.040662563    -6.578424863
 H        1.376123766    15.503430542    -5.044918201
 H        2.263071365    -1.028342599     0.066691902
 H        2.259630568     0.565813936     0.863673798
 H        2.276631430     0.456502067    -0.917144183
 H        0.652153641    -1.879343076   -15.730562364
 H        1.322740317    -0.715091520   -14.560556123
 H       -0.065343527    -0.255305162   -15.584398483
 H        0.388572633    -3.871223268   -13.538799138
 C        1.293813401    -2.652248978   -11.984045833
 C       -0.883500451    -3.865414642   -11.778891198
 H       -3.009374196    -2.809741294   -13.701801700
 C       -3.175065894    -1.323729744   -15.273264232
 C       -2.093195166    -3.571786524   -15.514762603
 H       -3.340949820     8.593451375    -3.323570879
 C       -3.978534725     6.522664104    -3.370490404
 C       -1.691510509     7.333818096    -3.982957512
 H       -6.034136700     7.280722216    -5.496679944
 C       -6.249429197     9.307556571    -4.755682998
 C       -6.199169242     8.652316220    -7.172425758
 H       -5.646282081    13.648939873    -1.669998229
 C       -4.967968892    12.138118373    -3.081760851
 C       -6.539777476    11.735550548    -1.178137811
 H       -5.168410049    12.211597030     1.567776865
 C       -3.221752300    12.834398674     2.297973704
 C       -4.976161000    14.365742849     1.369744795
 H       -0.152988567    -1.919307150    -1.537205996
 C       -2.156114445    -1.077357603    -1.579392141
 C       -0.195245281    -0.193973673    -2.857631341
 H       -1.778513743    -0.924631392     1.436186250
 C       -0.188983146    -2.389863402     1.606096197
 C       -0.290755117    -0.216102027     2.848162349
 H        2.054349461    -2.188051544   -12.624966715
 H        1.784339693    -3.505283752   -11.493715993
 H        1.050320554    -1.936676719   -11.185386390
 H       -1.764465174    -4.304683751   -12.263596930
 H       -1.233847706    -3.221619317   -10.959802780
 H       -0.347746171    -4.700032698   -11.303522332
 H       -3.455903922    -0.481749608   -14.624226761
 H       -4.116528243    -1.744378280   -15.654200389
 H       -2.647420830    -0.909512755   -16.142541987
 H       -1.581849014    -4.421755600   -15.044713639
 H       -1.501839647    -3.266984188   -16.388324091
 H       -3.042193650    -3.963977548   -15.908503254
 H       -5.051429251     6.724777881    -3.270127474
 H       -3.606753480     6.323358040    -2.351828718
 H       -3.858265759     5.582369220    -3.924529484
 H       -1.046710091     8.141346791    -4.354789535
 H       -1.465861584     6.431045697    -4.568436652
 H       -1.361595780     7.120744149    -2.956152966
 H       -5.932548354     9.116541556    -3.721288511
 H       -7.346627008     9.246087026    -4.756777198
 H       -5.998790933    10.350460042    -4.996562994
 H       -5.873947994     7.942991005    -7.946289213
 H       -5.917180641     9.660259176    -7.505765692
 H       -7.297802088     8.622841191    -7.173433030
 H       -4.142570654    12.713725084    -3.526177463
 H       -5.829469651    12.279336530    -3.749075140
 H       -4.688204819    11.076296603    -3.151034914
 H       -6.890663031    12.002063936    -0.173696888
 H       -6.346384328    10.653975880    -1.193017648
 H       -7.392710420    11.901858443    -1.852437824
 H       -2.768956226    11.833433740     2.327388728
 H       -3.597163877    13.029786711     3.312710283
 H       -2.415719757    13.559985594     2.122872242
 H       -5.859825244    14.501338706     0.732899746
 H       -4.257448196    15.157915630     1.115226148
 H       -5.305289372    14.568928586     2.398901310
 H       -2.537745973    -1.662347215    -0.733195948
 H       -2.456819154    -1.620147501    -2.487411072
 H       -2.699289058    -0.121808953    -1.600798876
 H        0.893043765    -0.095153049    -2.959855184
 H       -0.633265504     0.808875665    -2.968077290
 H       -0.533206165    -0.773131756    -3.729192640
 H       -0.472829503    -2.982087541     0.726561297
 H       -0.651294221    -2.885568983     2.472098108
 H        0.896376123    -2.488819930     1.739878294
 H       -0.637822735     0.826086701     2.891460182
 H        0.788697790    -0.212965427     3.050098087
 H       -0.762231438    -0.732682714     3.696265051

