187   

Si        0.000000000     0.000000000     0.000000000
 C        1.865981723     0.000000000     0.000000000
 C       -0.658976390     1.718008773     0.000000000
 C        0.150335897     2.809802062    -0.326941765
 C       -0.369818306     4.104347189    -0.320657467
 C       -1.707578086     4.333168986     0.005057243
 C       -2.519643630     3.236826679     0.326776979
 C       -2.004036940     1.944905932     0.322074179
 C       -2.300232844     5.664530442     0.026556252
 C       -1.652988694     6.807345304    -0.256182310
 C       -2.276776828     8.126062235    -0.225308950
 C       -3.622940918     8.303280720     0.107747498
 C       -4.191517990     9.575234343     0.128904090
 C       -3.419150400    10.702336484    -0.170369765
 C       -2.069855979    10.529924219    -0.503954915
 C       -1.509182056     9.255495808    -0.536281309
Si       -4.171321666    12.379330868    -0.141843967
 C       -2.956248161    13.657333831     0.336840912
 C       -1.915552642    13.435647653     1.151088893
 C       -0.944131637    14.461446452     1.532536382
 C        0.107656434    14.112830321     2.393720701
 C        1.051102747    15.047827629     2.782998012
 C        0.968420938    16.380706626     2.323116876
 C       -0.101426001    16.736369143     1.483445076
 C       -1.052333308    15.790269467     1.119048848
 N        1.947143556    17.304936779     2.740710525
 C        3.345062807    16.819838515     2.724504925
 C        1.802822897    18.687853265     2.259770196
 C        3.765654204    16.025922076     1.475433887
 C        4.083873649    16.897732906     0.245022567
 N        3.387924443    16.535000335    -1.010538451
 C        3.405042633    15.127065442    -1.279881753
 C        4.568385458    14.628082472    -1.886885600
 C        4.665298724    13.276814741    -2.180964333
 C        3.618784573    12.393892548    -1.871503550
 C        2.460073737    12.900868646    -1.277831676
 C        2.343063455    14.258994881    -0.996883005
 C        2.052458210    17.141103727    -1.146748099
 C        3.791050866    10.979229879    -2.211381329
 C        2.888730158    10.016436291    -1.981885067
Si        3.144645352     8.256690562    -2.423484623
 C        2.778083339     7.143442274    -1.005082570
 C        1.941746090     7.528135145     0.049195883
 C        1.688864513     6.654903856     1.106220588
 C        2.270392980     5.381491941     1.140084386
 C        3.107170085     5.000984229     0.086232756
 C        3.356547819     5.869117625    -0.973249461
 C        1.986624036     4.489572995     2.260144843
 C        2.493415272     3.250140376     2.375612381
 C        2.232805572     2.332602716     3.477776374
 C        1.406083638     2.659919708     4.555283284
 C        1.187533768     1.746959611     5.586769424
 C        1.795875808     0.487062727     5.564414673
 C        2.634747299     0.161702456     4.490902096
 C        2.857001338     1.077681568     3.466408612
Si        1.504731441    -0.715021775     6.927935063
 C       -0.180278517    -0.464189154     7.687403007
 C        1.655577238    -2.487517076     6.247838450
 C        2.844251338    -0.471543454     8.257191530
 C        1.921939259     7.801828600    -3.813352714
 C        4.916811678     8.019258539    -3.078341139
 C       -4.790262837    12.785659996    -1.894789495
 C       -5.641449662    12.434426402     1.062185587
 C       -0.661868652    -0.862092873    -1.561646029
 C       -0.595831450    -0.937570655     1.550603098
 H        1.207017983     2.695500102    -0.584101386
 H        0.284264331     4.939857676    -0.573709740
 H       -3.564988664     3.394616310     0.583128466
 H       -2.684211986     1.128089932     0.579472207
 H       -3.360960884     5.682064246     0.297281843
 H       -0.590438685     6.799488293    -0.520914075
 H       -4.244073234     7.443590380     0.352198919
 H       -5.250972119     9.647067912     0.389738879
 H       -1.422542196    11.378445212    -0.750900189
 H       -0.460601875     9.137947363    -0.806256289
 H       -3.148643096    14.653899672    -0.088366540
 H       -1.704827485    12.452169282     1.594581846
 H        0.190450033    13.087060683     2.757252369
 H        1.849927375    14.758142600     3.461189245
 H       -0.214712588    17.755670515     1.127849267
 H       -1.882847172    16.096830551     0.481234855
 H        2.553547571    19.327817373     2.754490073
 H        0.811892219    19.075795808     2.559171988
 H        1.913899667    18.796966371     1.169142766
 H        2.160532039    18.238139134    -1.149696736
 H        1.338990944    16.854044579    -0.360435825
 H        1.624790707    16.852827851    -2.123652778
 H        5.381004969    15.311373196    -2.126877277
 H        5.568874537    12.898885596    -2.658172123
 H        1.632352901    12.234336137    -1.032870510
 H        1.428564697    14.635149414    -0.539424145
 H        4.765632054    10.777477769    -2.678599025
 H        1.917343975    10.243255328    -1.515508897
 H        1.475819258     8.517090193     0.088588567
 H        1.031568685     6.970070764     1.915509762
 H        3.575537522     4.018381458     0.086139970
 H        4.017112781     5.508697030    -1.767977186
 H        1.311604208     4.895500844     3.017863074
 H        3.160790374     2.851309996     1.604774881
 H        0.915967256     3.631404287     4.591325613
 H        0.525474611     2.056479092     6.400294003
 H        3.140390698    -0.805148889     4.421523991
 H        3.523037547     0.810537231     2.647951809
 H        4.029052569    17.681899102     2.880137009
 H        3.466016528    16.172402004     3.627454519
 H        4.650243949    15.408206521     1.724560950
 H        2.981342551    15.281945947     1.223301209
 H        3.880642036    17.968535966     0.457080376
 H        5.174605474    16.832066078     0.018255038
 H        2.267233036    -1.026503780     0.057590544
 H        2.257338454     0.565270281     0.866053982
 H        2.265789475     0.462960700    -0.919090689
 H       -0.385104493    -1.223538715     8.462799352
 H       -0.973893418    -0.547259061     6.922363173
 H       -0.274575473     0.528473117     8.160981327
 H        2.711933445    -2.581867887     5.860924313
 C        1.452178722    -3.571285548     7.322101202
 C        0.697399617    -2.762384815     5.075082399
 H        2.601431644    -1.205534061     9.078628362
 C        4.264918462    -0.775764564     7.748537408
 C        2.828243160     0.944127660     8.862221789
 H        2.155828491     6.730137915    -4.079767929
 C        0.449870163     7.869770060    -3.373641806
 C        2.105693769     8.664652669    -5.073774406
 H        5.099329193     8.902788429    -3.759957963
 C        5.964615393     8.064304927    -1.951447735
 C        5.141570930     6.749464177    -3.918103925
 H       -5.250753228    13.813467858    -1.834723349
 C       -3.640079971    12.834617548    -2.916875413
 C       -5.865944004    11.807747848    -2.397733500
 H       -6.387555210    11.678987641     0.680357781
 C       -5.241327876    12.031858367     2.492969908
 C       -6.337602319    13.806538107     1.106228106
 H       -1.781263469    -0.920390159    -1.427228515
 C       -0.385085993    -0.059102592    -2.846012821
 C       -0.127202459    -2.293971324    -1.744381142
 H        0.167183138    -1.751411082     1.719936130
 C       -0.620788419    -0.039908086     2.799439549
 C       -1.972741115    -1.611956661     1.407768752
 H        2.150204644    -3.485963356     8.164866317
 H        1.618761748    -4.567266629     6.886650102
 H        0.433349701    -3.582655639     7.731502385
 H        0.829092307    -2.065623486     4.233318495
 H       -0.360139683    -2.729810325     5.368596412
 H        0.874190412    -3.768994204     4.670674421
 H        4.389694009    -1.807689098     7.396762144
 H        4.992819015    -0.639457057     8.561591788
 H        4.581885315    -0.103701311     6.938269334
 H        1.868976807     1.209922369     9.324530973
 H        3.073464831     1.724918852     8.127781991
 H        3.583831331     1.022506605     9.657180574
 H        0.223580681     7.231211193    -2.508027919
 H       -0.201913253     7.513903570    -4.185323529
 H        0.115457021     8.889919497    -3.140898393
 H        3.116260966     8.614476841    -5.498219300
 H        1.870212402     9.725221413    -4.903377919
 H        1.424129787     8.322813075    -5.866031526
 H        5.914966898     8.978334885    -1.342747620
 H        6.978433711     8.030526693    -2.374476660
 H        5.889320989     7.211191510    -1.262455486
 H        4.470890341     6.676461475    -4.784161550
 H        5.041360424     5.821249511    -3.340691037
 H        6.164570094     6.745858080    -4.322554476
 H       -2.851710485    13.553634876    -2.653891288
 H       -4.022574282    13.142461402    -3.900240972
 H       -3.160586329    11.856289151    -3.066941003
 H       -6.765592995    11.788652061    -1.769535609
 H       -5.498222595    10.775340406    -2.487304468
 H       -6.200213075    12.100891633    -3.403570972
 H       -4.786715376    11.033411117     2.555302365
 H       -6.129040004    12.006861570     3.140562979
 H       -4.541222052    12.742147744     2.956446824
 H       -6.717840656    14.134510908     0.130474773
 H       -5.688742237    14.602050457     1.498816782
 H       -7.209052620    13.763668263     1.775582317
 H       -0.790464881     0.962682914    -2.812913309
 H       -0.860855934    -0.549717474    -3.706761694
 H        0.683708193     0.016067931    -3.084300614
 H       -0.323413977    -2.947419868    -0.884589176
 H        0.952152004    -2.322850948    -1.944086072
 H       -0.612968199    -2.768313166    -2.609144700
 H        0.356102838     0.410010648     3.035049493
 H       -0.908510553    -0.623953816     3.684836708
 H       -1.343693643     0.784362352     2.727484536
 H       -2.019687487    -2.335683656     0.584715114
 H       -2.791717021    -0.894579007     1.269142868
 H       -2.209936578    -2.173046640     2.323502502

