187   

Si        0.000000000     0.000000000     0.000000000
 C        1.865239606     0.000000000     0.000000000
 C       -0.679409109     1.710891096     0.000000000
 C        0.128350694     2.810909958     0.304854642
 C       -0.399995791     4.101879963     0.301011085
 C       -1.746441219     4.321954028    -0.000129089
 C       -2.555615384     3.218103208    -0.301460063
 C       -2.030735929     1.928912813    -0.301237622
 C       -2.343495127     5.653125734    -0.016589893
 C       -1.683473421     6.793129349     0.249458426
 C       -2.285154780     8.122438313     0.231714101
 C       -1.481954928     9.231017605     0.529023685
 C       -2.013508364    10.518509901     0.524083076
 C       -3.360938708    10.728711377     0.208148374
 C       -4.165101384     9.622431051    -0.090026677
 C       -3.632988927     8.334361261    -0.072508881
Si       -4.092100162    12.416908964     0.193127756
 C       -5.414493679    12.569565023    -1.061029580
 C       -5.444722535    11.872868127    -2.205207575
 C       -6.498272563    11.988450433    -3.214014456
 C       -6.415229065    11.202891178    -4.371504676
 C       -7.385488017    11.272777452    -5.358801102
 C       -8.458108649    12.182453343    -5.245103406
 C       -8.539889940    12.974663938    -4.082225700
 C       -7.586057441    12.856351006    -3.080590189
 N       -9.448453279    12.263017467    -6.239473628
 C       -9.122695417    11.741493132    -7.576978046
 C      -10.239825762    13.504821340    -6.287321288
 C       -8.036791408    12.554051755    -8.301713771
 C       -7.520350235    11.782495128    -9.527198348
 N       -6.542052666    12.541982311   -10.322256243
 C       -6.995554212    13.679767876   -11.010229375
 C       -8.356514333    13.822521326   -11.354777512
 C       -8.795442195    14.948497428   -12.033656140
 C       -7.900405146    15.946331399   -12.442065964
 C       -6.547065527    15.788736972   -12.128198477
 C       -6.093419560    14.677538530   -11.431420018
 C       -5.226491864    12.641195216    -9.666276498
 C       -8.417227594    17.115083168   -13.155946994
 C       -7.653905966    18.125911720   -13.591248912
Si       -8.242737115    19.606370961   -14.485617472
 C       -7.574882720    21.123754408   -13.688839649
 C       -7.184924288    21.101500046   -12.344085796
 C       -6.678922177    22.249096321   -11.738415053
 C       -6.561046122    23.446425645   -12.456230440
 C       -6.957534558    23.466190446   -13.796683406
 C       -7.460134234    22.318399374   -14.407714240
 C       -6.025119621    24.622473033   -11.778337243
 C       -5.857357281    25.825483792   -12.353256018
 C       -5.321844406    27.003024183   -11.678149387
 C       -4.923980962    26.989414389   -10.338915388
 C       -4.417216737    28.139482462    -9.733750302
 C       -4.290040033    29.327978426   -10.459350049
 C       -4.687044899    29.343825360   -11.803392845
 C       -5.198271984    28.196285772   -12.402802126
Si       -3.623149491    30.854566257    -9.675762996
 C       -2.808856856    30.486123682    -8.038493274
 C       -2.369067594    31.640572421   -10.872947969
 C       -5.042690157    32.090135756    -9.389976264
 C       -7.628181829    19.506373288   -16.284157418
 C      -10.142107247    19.700208008   -14.496188256
 C       -4.844651375    12.772478236     1.903642942
 C       -2.748717091    13.715149367    -0.165627507
 C       -0.655168573    -0.905204043    -1.541319131
 C       -0.614437775    -0.922626586     1.547331889
 H        1.188589459     2.701484440     0.549018069
 H        0.250736314     4.941534084     0.538299244
 H       -3.607292219     3.367400438    -0.538778518
 H       -2.710220505     1.107429924    -0.545382026
 H       -3.408009165     5.673015614    -0.268881873
 H       -0.619561730     6.774833712     0.502497380
 H       -0.430462215     9.087825249     0.769874133
 H       -1.339871908    11.343546070     0.770756753
 H       -5.226420578     9.727077973    -0.341079550
 H       -4.280342194     7.490181966    -0.303068252
 H       -6.198088827    13.302166257    -0.816927699
 H       -4.668499027    11.142164056    -2.475259005
 H       -5.579199059    10.512824680    -4.495970412
 H       -7.300571854    10.624447496    -6.225423754
 H       -9.357572841    13.675481835    -3.947593658
 H       -7.685036717    13.467727190    -2.182238727
 H      -10.912653940    13.497632354    -7.160838654
 H       -9.618257822    14.414214652    -6.338003365
 H      -10.882130910    13.559501295    -5.389613779
 H       -5.016570879    11.726303834    -9.087261824
 H       -5.142862429    13.505715970    -8.986858384
 H       -4.441433242    12.716585951   -10.440658646
 H       -9.077534308    13.058248081   -11.081662834
 H       -9.856483679    15.048092044   -12.265052002
 H       -5.826735471    16.549481163   -12.435169401
 H       -5.033605241    14.593148596   -11.212633198
 H       -9.505005823    17.086273378   -13.300895766
 H       -6.561770119    18.119527472   -13.436522868
 H       -7.258663817    20.194980372   -11.734345529
 H       -6.374756274    22.212576483   -10.694042756
 H       -6.875989433    24.383403536   -14.376782077
 H       -7.752306272    22.394192874   -15.458642885
 H       -5.755735200    24.463612117   -10.730100272
 H       -6.126922092    25.983267398   -13.401714334
 H       -5.008259162    26.075658059    -9.753530215
 H       -4.124378472    28.067764903    -8.682632538
 H       -4.609710370    30.243685598   -12.420173719
 H       -5.502729619    28.228628625   -13.447185397
 H       -8.818193637    10.674456546    -7.472782330
 H      -10.059594570    11.722860918    -8.179540406
 H       -8.433470217    13.541002922    -8.607067086
 H       -7.199417043    12.777540806    -7.611870874
 H       -7.039751799    10.827861992    -9.210553873
 H       -8.363798428    11.483569821   -10.190554849
 H        2.263109886    -1.029886648    -0.037205392
 H        2.275158521     0.482142324     0.904726741
 H        2.260883067     0.540465105    -0.879145885
 H       -2.371679850    31.399386331    -7.596675791
 H       -1.991472707    29.752104176    -8.159062226
 H       -3.526916819    30.074350592    -7.307876350
 H       -2.946820920    31.879291440   -11.812970609
 C       -1.758916549    32.952871546   -10.349242833
 C       -1.231956628    30.674817723   -11.252579605
 H       -4.578370833    32.970675667    -8.858679796
 C       -5.685313100    32.603477697   -10.690896005
 C       -6.149783264    31.517023560    -8.486216587
 H       -8.036351467    20.420528537   -16.804437162
 C       -6.093044677    19.547315618   -16.385848825
 C       -8.147924152    18.263790777   -17.028189574
 H      -10.499668874    18.709642018   -14.901525159
 C      -10.728636072    19.881730622   -13.084124374
 C      -10.692193922    20.813023578   -15.406167005
 H       -5.265706437    13.817601553     1.848484307
 C       -5.996932432    11.810301064     2.243917396
 C       -3.808163371    12.733353903     3.040056896
 H       -1.990261396    13.618929041     0.664050853
 C       -2.031399625    13.458934193    -1.503269439
 C       -3.282659560    15.158707572    -0.154921423
 H       -1.779629724    -0.912121649    -1.441724855
 C       -0.303385283    -0.172818328    -2.848907539
 C       -0.182784575    -2.366499612    -1.642127742
 H       -0.125566789    -1.938925439     1.510880834
 C       -0.184931983    -0.232876081     2.855214522
 C       -2.139510810    -1.128542023     1.576497259
 H       -2.509308790    33.720944676   -10.121589352
 H       -1.095405914    33.387982804   -11.110829015
 H       -1.142859411    32.810463778    -9.451484230
 H       -1.591292002    29.730413434   -11.685956445
 H       -0.581505717    30.422827488   -10.404549380
 H       -0.584809480    31.134576816   -12.013094924
 H       -4.975431486    33.107935058   -11.358488742
 H       -6.464945351    33.343390553   -10.457652309
 H       -6.181882176    31.807979731   -11.264216500
 H       -5.788081892    31.203010778    -7.498667129
 H       -6.669099221    30.659776266    -8.938377224
 H       -6.919412177    32.280457457    -8.302717794
 H       -5.647817037    20.431842636   -15.908851745
 H       -5.786233992    19.580852567   -17.440925559
 H       -5.611866597    18.659183925   -15.953475778
 H       -9.243182683    18.210975602   -17.075420651
 H       -7.788134300    17.321230925   -16.590760180
 H       -7.795413262    18.273374338   -18.069453045
 H      -10.419852031    19.100741689   -12.376024984
 H      -11.826315946    19.846940006   -13.123773526
 H      -10.467501076    20.851798671   -12.636672711
 H      -10.406686376    20.695420079   -16.459244282
 H      -10.387479177    21.819081631   -15.084756890
 H      -11.791693663    20.806470451   -15.384889501
 H       -6.808490466    11.821871672     1.503542898
 H       -6.451762924    12.091117356     3.204383182
 H       -5.664302031    10.768091391     2.355227196
 H       -2.998222097    13.463524942     2.916963838
 H       -3.349198877    11.742280355     3.166946171
 H       -4.291988206    12.970762150     3.998638181
 H       -1.570286688    12.463673543    -1.568477280
 H       -1.218072119    14.185090568    -1.641118745
 H       -2.696122368    13.571411794    -2.372092827
 H       -3.744894090    15.446045702     0.797987601
 H       -4.013185955    15.349513237    -0.953605467
 H       -2.456687797    15.865605252    -0.319950889
 H       -0.660870894     0.866602588    -2.873565786
 H       -0.774055058    -0.679502222    -3.703415571
 H        0.774980797    -0.156400066    -3.055229838
 H       -0.462245257    -2.974986004    -0.772369727
 H        0.902922173    -2.457228665    -1.779053855
 H       -0.643520726    -2.850123303    -2.515794982
 H        0.902487110    -0.120558244     2.952953461
 H       -0.510836862    -0.828771941     3.719831349
 H       -0.635105308     0.762434359     2.980795471
 H       -2.519604230    -1.694026879     0.716406286
 H       -2.696891442    -0.182777175     1.632286299
 H       -2.423489979    -1.703338893     2.470145867

