187   

Si        0.000000000     0.000000000     0.000000000
 C        1.864909126     0.000000000     0.000000000
 C       -0.682297457     1.709627516     0.000000000
 C        0.156309349     2.828156788     0.024408319
 C       -0.378898498     4.116522280     0.024008813
 C       -1.761113405     4.314851653    -0.009322426
 C       -2.600365903     3.193138209    -0.033206952
 C       -2.069456720     1.906916409    -0.023956685
 C       -2.371020427     5.639741233    -0.011256870
 C       -1.690764144     6.798223875     0.018113342
 C       -2.311721893     8.118585183     0.015849305
 C       -1.492043303     9.253726379     0.048547158
 C       -2.044410580    10.533108536     0.047615716
 C       -3.432482727    10.704572811     0.021617150
 C       -4.253868634     9.570433529    -0.011199576
 C       -3.698529091     8.292975584    -0.017852950
Si       -4.215347800    12.370533550     0.019152080
 C       -5.789529623    12.326170359     0.949642248
 C       -6.008102084    11.492316149     1.975462020
 C       -7.253308915    11.430819725     2.740100099
 C       -7.348053688    10.507582797     3.793332592
 C       -8.501310928    10.405542302     4.550347353
 C       -9.634381169    11.186994503     4.231905616
 C       -9.540755915    12.110929342     3.176504474
 C       -8.352748351    12.245782143     2.466219427
 N      -10.789496397    11.055422370     5.025519158
 C      -11.206615103     9.675700393     5.365075622
 C      -11.917658695    11.946068020     4.709912856
 C      -10.983613158     8.603467975     4.285889498
 C      -11.790546040     8.827569035     2.992816338
 N      -11.064317064     8.440848170     1.760426434
 C      -10.378660637     7.201676363     1.854146333
 C      -11.124608916     6.064698630     2.225670750
 C      -10.505719768     4.830563209     2.332295424
 C       -9.141580126     4.677564126     2.038340349
 C       -8.411741097     5.802466747     1.648679779
 C       -9.016564305     7.051487470     1.551547298
 C      -10.293262785     9.550704004     1.174902059
 C       -8.544106096     3.347446302     2.169851506
 C       -7.258002647     3.065666913     1.921050462
Si       -6.540392927     1.392428967     2.094596456
 C       -7.388502752     0.403894956     3.393557625
 C       -7.928874217     1.043739642     4.514924422
 C       -8.574476315     0.308602708     5.507741718
 C       -8.681433357    -1.081791429     5.411380176
 C       -8.130485268    -1.721314181     4.293370439
 C       -7.489048767    -0.989125290     3.297319501
 C       -9.347857571    -1.891795893     6.425699351
 C       -9.915882143    -1.404173044     7.541706670
 C      -10.582551025    -2.213090413     8.556693762
 C      -10.694763266    -3.602430151     8.460035973
 C      -11.340913925    -4.336813697     9.454379950
 C      -11.895739799    -3.694840841    10.565876765
 C      -11.785377945    -2.301159792    10.664821171
 C      -11.134972824    -1.571610817     9.673623664
Si      -12.751704459    -4.649564303    11.886768062
 C      -13.100262369    -6.401937686    11.350925079
 C      -11.659628021    -4.692773866    13.445426550
 C      -14.378139975    -3.755813816    12.310646764
 C       -6.642081043     0.500094428     0.416276146
 C       -4.709434942     1.557954841     2.580084772
 C       -3.055044047    13.658177583     0.798800980
 C       -4.586354283    12.878297511    -1.775083569
 C       -0.603295312    -0.952058552    -1.534071191
 C       -0.661198371    -0.872085009     1.557053737
 H        1.245587462     2.735841521     0.044766546
 H        0.295283719     4.970438895     0.047070451
 H       -3.680908457     3.331489359    -0.064200825
 H       -2.771686350     1.066565801    -0.029536384
 H       -3.465620340     5.638214737    -0.038759255
 H       -0.597766067     6.804173196     0.045408498
 H       -0.410153081     9.138989658     0.074062352
 H       -1.355595495    11.381699774     0.069922888
 H       -5.347321745     9.644659358    -0.035762657
 H       -4.358804077     7.427470496    -0.046638874
 H       -6.550057628    13.048847955     0.621955838
 H       -5.254428732    10.770399478     2.324896527
 H       -6.493853330     9.871118608     4.032089549
 H       -8.534058175     9.726972573     5.399563955
 H      -10.385945182    12.734775554     2.906358931
 H       -8.295016653    12.988673472     1.669532727
 H      -12.696385030    11.839331740     5.484975397
 H      -12.376143658    11.763265335     3.725326118
 H      -11.574423112    12.996400024     4.752762016
 H      -10.958702806    10.417980833     1.029831086
 H       -9.927931766     9.253547848     0.176010662
 H       -9.435140883     9.876997957     1.788431739
 H      -12.188386598     6.161409434     2.426985552
 H      -11.092443283     3.962981307     2.635929460
 H       -7.349341994     5.710167929     1.418869266
 H       -8.413572772     7.907540123     1.259836744
 H       -9.264109048     2.585672747     2.503225025
 H       -6.557309235     3.841757267     1.578168702
 H       -7.868956253     2.129381933     4.648556738
 H       -8.993783844     0.830409570     6.366109213
 H       -8.201893690    -2.803083583     4.199448462
 H       -7.077426780    -1.543186880     2.449488077
 H       -9.360264154    -2.965752202     6.218337449
 H       -9.902785692    -0.330064516     7.749020175
 H      -10.275212425    -4.125846574     7.602869773
 H      -11.396248656    -5.421049218     9.323523297
 H      -12.200440676    -1.745514300    11.510479681
 H      -11.057746386    -0.490206425     9.768938518
 H      -10.628633848     9.391888010     6.279551349
 H      -12.275983856     9.681774220     5.669390192
 H       -9.903639552     8.531647045     4.038001921
 H      -11.230905844     7.610232972     4.710138291
 H      -12.732091041     8.233469552     3.018973252
 H      -12.102483814     9.889312112     2.900712073
 H        2.263221518    -1.030371634     0.009069424
 H        2.264648805     0.516039350     0.891491803
 H        2.271547732     0.505674765    -0.893660064
 H      -13.652585041    -6.954647662    12.131810280
 H      -12.170164299    -6.959722096    11.144093691
 H      -13.716155264    -6.420296511    10.433452371
 H      -12.213351096    -5.337658669    14.187471096
 C      -10.285839109    -5.337186970    13.184424424
 C      -11.441795093    -3.310066717    14.085516314
 H      -14.081596864    -2.726696060    12.667575296
 C      -15.292121773    -3.583033866    11.084064846
 C      -15.175578367    -4.433985430    13.438803439
 H       -6.103425371    -0.482098751     0.549662483
 C       -8.096376333     0.197701575     0.012117343
 C       -5.958316863     1.264392602    -0.731203537
 H       -4.191400133     2.051175882     1.706777313
 C       -4.501241910     2.452120693     3.814726807
 C       -4.038522346     0.196408096     2.829047301
 H       -2.119259209    13.657635161     0.168164282
 C       -3.634748006    15.083931937     0.786468359
 C       -2.661329517    13.292745324     2.241364086
 H       -5.054685206    13.903117023    -1.719559051
 C       -3.323528585    12.975861229    -2.648442159
 C       -5.591449170    11.929551657    -2.452946865
 H       -0.038791755    -1.929539265    -1.517328406
 C       -2.107965356    -1.277458663    -1.532728226
 C       -0.258929885    -0.225230314    -2.847073235
 H       -1.787228655    -0.833518621     1.472263323
 C       -0.245598319    -2.349730100     1.659796987
 C       -0.259103645    -0.146965219     2.854140619
 H      -10.350785281    -6.365235163    12.805555402
 H       -9.710846560    -5.390754850    14.120071564
 H       -9.670771328    -4.760667080    12.478395219
 H      -12.375208477    -2.812915857    14.378187644
 H      -10.881837860    -2.622830479    13.435641181
 H      -10.847844216    -3.412027227    15.005600531
 H      -14.806254579    -3.053455608    10.251988215
 H      -16.175762917    -2.986847965    11.352910370
 H      -15.670396729    -4.536739177    10.692818068
 H      -14.610280325    -4.528139033    14.375026774
 H      -15.538962381    -5.433480782    13.165543682
 H      -16.068397075    -3.837947501    13.677860508
 H       -8.644099197    -0.398736145     0.754702846
 H       -8.117601544    -0.381348498    -0.921649423
 H       -8.685477402     1.107070255    -0.176697848
 H       -4.886987540     1.434567707    -0.564352962
 H       -6.427577737     2.236820309    -0.936447247
 H       -6.034519513     0.687395542    -1.664180888
 H       -4.908660377     3.465093257     3.694623113
 H       -3.425745096     2.576322372     4.009836658
 H       -4.933358285     2.026262285     4.730673005
 H       -4.065508239    -0.470959306     1.958561434
 H       -4.472915611    -0.347498699     3.679708284
 H       -2.975265353     0.344997744     3.074847444
 H       -3.868665854    15.451219114    -0.220818066
 H       -2.903948170    15.789791815     1.207391482
 H       -4.542086926    15.181611168     1.398913833
 H       -2.186336282    12.305788759     2.329023226
 H       -3.515496098    13.309503003     2.934090320
 H       -1.934735746    14.019854318     2.630508925
 H       -2.591693037    13.704792824    -2.277462497
 H       -3.592459429    13.301055324    -3.663994149
 H       -2.806939782    12.012060872    -2.763446674
 H       -6.546884627    11.849442800    -1.916663331
 H       -5.196627405    10.911438769    -2.582864853
 H       -5.833175765    12.294682711    -3.461233355
 H       -2.438184103    -1.821556655    -0.638823145
 H       -2.350518286    -1.922275317    -2.390154279
 H       -2.737535958    -0.383233326    -1.638215164
 H        0.814439999    -0.031282553    -2.970946966
 H       -0.782981534     0.735530733    -2.953886850
 H       -0.560794904    -0.838203564    -3.708308730
 H       -0.559577562    -2.951675237     0.797359445
 H       -0.712954388    -2.810595844     2.542481199
 H        0.837358949    -2.482855666     1.782505678
 H       -0.570120079     0.907420742     2.877660509
 H        0.822062512    -0.175748831     3.044189220
 H       -0.735690636    -0.629753296     3.719701149

