187   

Si        0.000000000     0.000000000     0.000000000
 C        1.864201875     0.000000000     0.000000000
 C       -0.681845039     1.709543010     0.000000000
 C        0.091160209     2.791182281    -0.434151958
 C       -0.433236367     4.083398820    -0.430907501
 C       -1.730086294     4.325892025     0.029053732
 C       -2.503440255     3.241554263     0.463921657
 C       -1.991269157     1.947583205     0.438828109
 C       -2.320069598     5.659317959     0.051130580
 C       -1.695543652     6.776041840    -0.359140278
 C       -2.279973071     8.112715057    -0.339689126
 C       -3.575192580     8.366517254     0.117916533
 C       -4.091301571     9.662285547     0.117440898
 C       -3.346704995    10.721319578    -0.408746148
 C       -2.050987230    10.468220093    -0.881299300
 C       -1.518248741     9.183812335    -0.826063353
Si       -3.967593701    12.452805304    -0.440381123
 C       -3.811726222    13.142715482    -2.129275857
 C       -3.882093956    12.407358049    -3.248122346
 C       -3.758818188    12.948701877    -4.602986091
 C       -3.849741044    12.077258578    -5.699286770
 C       -3.738978989    12.545201765    -6.998498125
 C       -3.578271902    13.923520877    -7.253360386
 C       -3.486619792    14.797816122    -6.154344497
 C       -3.553742911    14.306647400    -4.855903944
 N       -3.466596782    14.388263300    -8.579734113
 C       -4.257313898    13.692390435    -9.609930152
 C       -3.444806519    15.847886388    -8.773593390
 C       -5.775737168    13.794147027    -9.384652359
 C       -6.594058928    13.135099437   -10.509100448
 N       -6.269900852    11.723998537   -10.817024834
 C       -5.957294772    10.916687972    -9.699170211
 C       -6.834773378    10.941172550    -8.594558686
 C       -6.568290789    10.166913533    -7.478758050
 C       -5.468151038     9.295363421    -7.448950344
 C       -4.621638163     9.249117577    -8.557290421
 C       -4.855859882    10.046672307    -9.672488215
 C       -5.402414766    11.576336254   -11.997554030
 C       -5.237839356     8.502637349    -6.241367352
 C       -4.228265488     7.636467513    -6.083365775
Si       -3.949947153     6.650615194    -4.569171343
 C       -3.692281521     4.851847786    -4.818632792
 C       -4.034733753     4.202322754    -6.006499110
 C       -3.818636147     2.830552926    -6.147341363
 C       -3.268261693     2.082176079    -5.103817977
 C       -2.929445397     2.735955751    -3.910752275
 C       -3.137304554     4.103683193    -3.768722588
 C       -3.023796557     0.647619526    -5.203242223
 C       -3.297264802    -0.107190691    -6.280610212
 C       -3.049100069    -1.542319080    -6.370891222
 C       -2.492231289    -2.277247363    -5.321487419
 C       -2.270060777    -3.647996750    -5.445605020
 C       -2.606628090    -4.317206814    -6.626254402
 C       -3.165777005    -3.583699916    -7.681548878
 C       -3.381459766    -2.214121452    -7.555002572
Si       -2.319728422    -6.126143211    -6.805884337
 C       -1.956778102    -6.929153837    -5.161369186
 C       -3.870027477    -6.903435486    -7.590062000
 C       -0.840714842    -6.417448542    -7.968228828
 C       -2.370834719     7.402321647    -3.809388848
 C       -5.409456309     6.875135023    -3.366440567
 C       -5.806942795    12.501738803     0.051876620
 C       -2.982013139    13.523868710     0.780350237
 C       -0.628291642    -0.892778008    -1.560976791
 C       -0.660328715    -0.930347393     1.522803903
 H        1.116716200     2.664170400    -0.791463581
 H        0.184097210     4.906223149    -0.787022796
 H       -3.518939272     3.407935753     0.818524389
 H       -2.645808437     1.139181026     0.776222217
 H       -3.338725827     5.702003534     0.448250896
 H       -0.672385510     6.730674106    -0.745640883
 H       -4.187388840     7.555388526     0.508269452
 H       -5.095912375     9.803486782     0.524290127
 H       -1.424046012    11.259051302    -1.307433417
 H       -0.502234652     9.009362084    -1.175891655
 H       -3.668911922    14.232112508    -2.168190753
 H       -4.031492568    11.317192470    -3.232835740
 H       -4.005088918    11.007108526    -5.533450287
 H       -3.794084468    11.835592524    -7.823038028
 H       -3.357194372    15.864452275    -6.300663329
 H       -3.462056781    15.006254077    -4.024417355
 H       -3.325940347    16.081311875    -9.844788315
 H       -2.562085751    16.267916256    -8.257189954
 H       -4.350327072    16.356383057    -8.405648646
 H       -5.844796519    12.131249747   -12.842924488
 H       -5.377159753    10.513265818   -12.299373868
 H       -4.370042981    11.928798523   -11.849004416
 H       -7.718051012    11.573885435    -8.619862231
 H       -7.236585496    10.223658155    -6.618544679
 H       -3.757387527     8.583206415    -8.555805555
 H       -4.167323114     9.991981136   -10.509395129
 H       -5.989745458     8.689265300    -5.461519708
 H       -3.482422623     7.471747919    -6.876303746
 H       -4.473581748     4.738012271    -6.852715467
 H       -4.087162792     2.345812668    -7.083652860
 H       -2.498020808     2.171885766    -3.084220468
 H       -2.847100135     4.559313195    -2.814551871
 H       -2.585061027     0.198456464    -4.305061189
 H       -3.736798341     0.339170653    -7.176856075
 H       -2.224294988    -1.779540694    -4.389451325
 H       -1.830745262    -4.166870999    -4.589247847
 H       -3.448891279    -4.053640476    -8.627523275
 H       -3.815458404    -1.661979397    -8.386307034
 H       -3.981671794    14.106577538   -10.604495287
 H       -3.938803557    12.622769148    -9.625357760
 H       -6.026880559    13.332422408    -8.405993581
 H       -6.076577123    14.854125097    -9.291882550
 H       -7.676077877    13.156896107   -10.230460010
 H       -6.507600147    13.738532741   -11.438811084
 H        2.262306155    -1.029790514     0.036762102
 H        2.258923684     0.539598578     0.880162389
 H        2.277069217     0.483318656    -0.902717967
 H       -1.829086131    -8.020810803    -5.271504390
 H       -2.784460348    -6.762391302    -4.448320593
 H       -1.033324973    -6.530583563    -4.706135215
 H       -3.995553026    -6.398929738    -8.592199551
 C       -3.740600477    -8.416896508    -7.837410308
 C       -5.143326383    -6.636513126    -6.766937614
 H       -0.680124260    -7.534108371    -7.983787258
 C       -1.091361001    -5.951874746    -9.413675889
 C        0.451283343    -5.755888618    -7.454157326
 H       -2.391111549     7.129079131    -2.715002255
 C       -1.079673169     6.829757373    -4.419101261
 C       -2.339033827     8.935698843    -3.923124246
 H       -5.490216772     7.984417806    -3.176517555
 C       -6.743306200     6.380654068    -3.957518289
 C       -5.197887439     6.173312142    -2.014925774
 H       -5.879174809    11.971535215     1.044711998
 C       -6.349862805    13.929897628     0.238220467
 C       -6.702327630    11.761541204    -0.959182245
 H       -3.443080034    14.552857717     0.724559569
 C       -3.090300696    13.029330399     2.233684773
 C       -1.494257182    13.652844794     0.407666682
 H       -0.205373997    -1.937224580    -1.505180530
 C       -2.162430870    -0.998620637    -1.615682082
 C       -0.120913343    -0.241182073    -2.859267254
 H       -1.784710780    -0.936725779     1.422991513
 C       -0.189239008    -2.393701323     1.598976259
 C       -0.309098055    -0.221511289     2.843436621
 H       -2.891654276    -8.681243267    -8.481044783
 H       -4.640389155    -8.791875083    -8.346610934
 H       -3.649931808    -8.996567502    -6.909288992
 H       -5.332130046    -5.567152268    -6.594350297
 H       -5.133298569    -7.132702203    -5.787530716
 H       -6.024467105    -7.021372528    -7.299809688
 H       -1.952544026    -6.440947567    -9.886173996
 H       -0.220771605    -6.191620783   -10.041496734
 H       -1.234631341    -4.864927492    -9.492811102
 H        0.750235855    -6.099568932    -6.455623005
 H        0.385711905    -4.658654941    -7.422714800
 H        1.289172169    -5.994682101    -8.124749828
 H       -1.002457062     5.736984358    -4.330172429
 H       -0.203705563     7.242521973    -3.899339950
 H       -0.957198175     7.083891965    -5.480275355
 H       -3.167104060     9.421112456    -3.387136582
 H       -2.346840252     9.295999913    -4.961237134
 H       -1.416586899     9.330080741    -3.472441995
 H       -7.002291093     6.838565280    -4.921012350
 H       -7.568663910     6.615387857    -3.271224827
 H       -6.764062636     5.290760368    -4.101375463
 H       -4.264208189     6.467511878    -1.516841237
 H       -5.198703776     5.077044058    -2.099513777
 H       -6.013797505     6.430294176    -1.325380133
 H       -5.825298026    14.496941556     1.017830641
 H       -7.405169045    13.893394426     0.545135784
 H       -6.320591986    14.522959242    -0.686352143
 H       -6.408034494    10.716890889    -1.129096120
 H       -6.731100655    12.257517134    -1.941117959
 H       -7.738957070    11.735518497    -0.595894258
 H       -4.121349455    13.000217018     2.609021220
 H       -2.538391822    13.704564977     2.903545454
 H       -2.654813139    12.030489880     2.379897905
 H       -1.328423806    14.004860083    -0.619649889
 H       -0.941745107    12.710930457     0.532630367
 H       -1.004107679    14.384028295     1.066388113
 H       -2.597965581    -1.503770060    -0.744012813
 H       -2.471575362    -1.593200821    -2.488621030
 H       -2.656106653    -0.020919110    -1.713745746
 H        0.973307916    -0.171934051    -2.915831487
 H       -0.522259293     0.770229451    -3.018506386
 H       -0.425920346    -0.839707934    -3.730706680
 H       -0.468504419    -2.986915576     0.718666436
 H       -0.651695416    -2.891992527     2.463582923
 H        0.896178508    -2.488047548     1.735882251
 H       -0.664308203     0.817917975     2.886599506
 H        0.769191140    -0.211029505     3.051381105
 H       -0.781363826    -0.742635724     3.688517331

