187   

Si        0.000000000     0.000000000     0.000000000
 C        1.866000864     0.000000000     0.000000000
 C       -0.674568352     1.711574311     0.000000000
 C        0.170447991     2.824498745     0.047120614
 C       -0.357633940     4.115428934     0.046412196
 C       -1.738787795     4.320992499     0.008564280
 C       -2.584602188     3.204635864    -0.040936971
 C       -2.060290664     1.915672763    -0.052228921
 C       -2.336577051     5.651189616     0.006273653
 C       -1.645145552     6.802981757     0.039464667
 C       -2.253219534     8.128955816     0.036826888
 C       -1.422059845     9.256022876     0.073802291
 C       -1.962362975    10.539703682     0.072656028
 C       -3.349938591    10.725447217     0.041745293
 C       -4.181530854     9.600506040     0.012945167
 C       -3.637930575     8.317470556     0.014995946
Si       -4.078488045    12.414174251     0.039820293
 C       -5.734101353    12.435051205    -0.738043984
 C       -6.109665494    11.595080273    -1.711940923
 C       -7.429904262    11.599845256    -2.343452759
 C       -7.692104635    10.662072403    -3.355067712
 C       -8.923225009    10.622314055    -3.985679936
 C       -9.919845549    11.562355543    -3.654262182
 C       -9.660547933    12.503290675    -2.647670188
 C       -8.434014924    12.502118387    -1.990178358
 N      -11.160930497    11.469885379    -4.335346369
 C      -11.064657704    11.598674890    -5.803094299
 C      -12.272262869    12.248112817    -3.763169173
 C      -10.626472212    12.983579968    -6.318338840
 C       -9.097941758    13.174095339    -6.386246602
 N       -8.405858401    12.604714951    -7.559670507
 C       -8.207519129    11.190922486    -7.477519827
 C       -7.132468831    10.751030984    -6.686516140
 C       -6.875316772     9.393657419    -6.557239803
 C       -7.681249245     8.444584236    -7.203358129
 C       -8.737475172     8.893539085    -8.001575076
 C       -8.991760145    10.251561368    -8.157886548
 C       -8.942797715    13.072226397    -8.848720507
 C       -7.376666765     7.018086618    -7.041844403
 C       -8.094402766     6.048699998    -7.623005841
Si       -7.854866410     4.239168188    -7.527830687
 C       -6.136300224     3.631291619    -7.293205167
 C       -5.025657087     4.481523609    -7.302920318
 C       -3.741597451     3.970421966    -7.120228123
 C       -3.534407611     2.598843269    -6.928965511
 C       -4.645960528     1.750505385    -6.922371544
 C       -5.930465145     2.258303700    -7.102011919
 C       -2.174141965     2.103443326    -6.741208306
 C       -1.855432598     0.812164675    -6.547149488
 C       -0.500694479     0.304577520    -6.358341946
 C        0.623525962     1.133782573    -6.361333369
 C        1.900860291     0.604074300    -6.176785410
 C        2.083682785    -0.771906882    -6.008280769
 C        0.958192294    -1.607328350    -6.015244526
 C       -0.316293671    -1.074673216    -6.186848383
Si        3.762311181    -1.487789004    -5.763594977
 C        5.096494399    -0.213140538    -6.037955808
 C        3.932427145    -2.164240876    -3.993221605
 C        3.963104670    -2.933174834    -6.985403828
 C       -8.900741569     3.594516558    -6.072130702
 C       -8.553586966     3.541869119    -9.158466292
 C       -4.244847212    13.023262150     1.833012438
 C       -2.942825995    13.604099732    -0.916330556
 C       -0.663523733    -0.844712052    -1.572252922
 C       -0.592596992    -0.970542119     1.524799172
 H        1.258694558     2.725454927     0.083079796
 H        0.320464262     4.965870061     0.078410192
 H       -3.663402515     3.344455922    -0.077330473
 H       -2.767440197     1.082887816    -0.105658867
 H       -3.430488781     5.659812621    -0.026850409
 H       -0.552316474     6.797896095     0.071739782
 H       -0.341551039     9.130273605     0.100274307
 H       -1.264791721    11.381127009     0.098871098
 H       -5.273943017     9.684303127     0.001426636
 H       -4.306746039     7.458588749    -0.003684229
 H       -6.415847705    13.207684437    -0.353028353
 H       -5.440547044    10.824309786    -2.122633492
 H       -6.923257199     9.942187943    -3.640032331
 H       -9.124201582     9.865040148    -4.743412246
 H      -10.407496343    13.240087994    -2.371046480
 H       -8.258166129    13.232107002    -1.200055100
 H      -13.207298749    11.963083569    -4.275777349
 H      -12.153433174    13.339804362    -3.839386039
 H      -12.392145798    11.977453350    -2.698854908
 H       -8.882503618    14.173984702    -8.875054308
 H       -9.981560322    12.775405304    -9.056651314
 H       -8.301924344    12.688198551    -9.662059968
 H       -6.508471604    11.487038099    -6.179188881
 H       -6.034030155     9.063821282    -5.947083509
 H       -9.374101877     8.176552815    -8.520401126
 H       -9.810248085    10.575736943    -8.793775945
 H       -6.510745568     6.821535008    -6.398749623
 H       -8.971282487     6.309619182    -8.244785361
 H       -5.123254138     5.559545944    -7.462381345
 H       -2.890890276     4.649804350    -7.127868533
 H       -4.515242740     0.679983691    -6.774910594
 H       -6.757905950     1.542685117    -7.079295606
 H       -1.397543359     2.873336751    -6.765430950
 H       -2.635831118     0.045820412    -6.521352049
 H        0.509519365     2.207646116    -6.499118900
 H        2.740559655     1.304689681    -6.177450541
 H        1.039976249    -2.690826489    -5.891474826
 H       -1.177645582    -1.739659342    -6.189913109
 H      -10.369031619    10.810056472    -6.172949240
 H      -12.062377231    11.339155864    -6.224357281
 H      -11.071715705    13.157844387    -7.314959023
 H      -11.052118425    13.773083920    -5.669794954
 H       -8.864621984    14.264823109    -6.384071509
 H       -8.620168073    12.758511292    -5.467517459
 H        2.263306939    -1.030201322    -0.025391679
 H        2.271904578     0.491755412     0.901275386
 H        2.262922028     0.532290803    -0.883855861
 H        6.101123540    -0.657192785    -5.921078014
 H        5.017483036     0.623286183    -5.321405158
 H        5.038724603     0.208765995    -7.057678325
 H        5.008153481    -2.492479728    -3.897780688
 C        3.665085048    -1.088188697    -2.926365273
 C        3.038818479    -3.383079322    -3.703062195
 H        3.149741847    -3.671752017    -6.725518522
 C        3.755502100    -2.501659694    -8.448413050
 C        5.315117565    -3.657951325    -6.863298747
 H       -8.834706058     2.469327039    -6.115788258
 C       -8.342044046     4.053793413    -4.713628777
 C      -10.384294515     3.990903367    -6.165086058
 H       -9.600797354     3.954672540    -9.241273007
 C       -7.749375325     4.027369105   -10.378068202
 C       -8.648512923     2.007781302    -9.204284744
 H       -4.683626509    14.060746325     1.771500357
 C       -5.204404584    12.146263423     2.657450273
 C       -2.896405558    13.117030411     2.568091432
 H       -1.959903442    13.613588983    -0.362896964
 C       -2.678228496    13.123240190    -2.354512913
 C       -3.476657539    15.046793010    -0.961403156
 H       -1.780751208    -0.923605979    -1.429596102
 C       -0.412277618    -0.006725934    -2.836654390
 C       -0.111004147    -2.263661235    -1.790162709
 H       -0.045317523    -1.956990673     1.483150264
 C       -0.217718311    -0.272773797     2.845711091
 C       -2.101999161    -1.271004010     1.540046797
 H        4.325325823    -0.215512608    -3.010539059
 H        3.830353749    -1.503029032    -1.921573911
 H        2.626441814    -0.722597695    -2.942543102
 H        3.239615721    -4.236200243    -4.363524213
 H        1.965943674    -3.152197234    -3.767912781
 H        3.214571823    -3.742001359    -2.678422142
 H        2.780312853    -2.025766174    -8.625743207
 H        3.792846725    -3.379266609    -9.109425046
 H        4.530558898    -1.811539646    -8.807130211
 H        5.502862148    -4.062192900    -5.860233196
 H        6.168287667    -3.021143472    -7.132368681
 H        5.344307766    -4.516036178    -7.550573655
 H       -7.300645288     3.745066882    -4.544695941
 H       -8.928721661     3.611976938    -3.895861100
 H       -8.392059515     5.143677726    -4.575300030
 H      -10.873215300     3.640556417    -7.082706623
 H      -10.541289050     5.076691044    -6.093291011
 H      -10.944487484     3.545380462    -5.330165792
 H       -7.687690298     5.121670378   -10.455256327
 H       -8.223648613     3.679049008   -11.306419779
 H       -6.721024957     3.638001352   -10.394131279
 H       -9.236042660     1.580252368    -8.382267490
 H       -7.663640880     1.519827412    -9.206877616
 H       -9.145893880     1.691280054   -10.132883941
 H       -6.212203052    12.076401490     2.225737633
 H       -5.328942578    12.567304181     3.665120449
 H       -4.832499320    11.120808442     2.797144588
 H       -2.186307220    13.803807372     2.090264163
 H       -2.399441400    12.142166746     2.676493088
 H       -3.050155030    13.496295350     3.588826365
 H       -2.232738071    12.119693967    -2.403022497
 H       -1.969887490    13.798596251    -2.854460430
 H       -3.585708596    13.112590208    -2.975824353
 H       -3.619834898    15.489964945     0.032263040
 H       -4.426177159    15.133833423    -1.507967368
 H       -2.760644943    15.695729397    -1.486175046
 H       -0.825780083     1.010330366    -2.778810306
 H       -0.893048223    -0.479074095    -3.707079433
 H        0.651202141     0.085060368    -3.096300587
 H       -0.317284861    -2.944676641    -0.955501515
 H        0.973238751    -2.274083226    -1.972609598
 H       -0.576011280    -2.713034404    -2.679553867
 H        0.860264275    -0.098530907     2.956987193
 H       -0.517919744    -0.895891461     3.700069579
 H       -0.725030400     0.693897525     2.976620016
 H       -2.447872322    -1.815219535     0.652262102
 H       -2.715667810    -0.365557752     1.643077409
 H       -2.348742108    -1.906126457     2.403271285

