187   

Si        0.000000000     0.000000000     0.000000000
 C        1.865384463     0.000000000     0.000000000
 C       -0.661902163     1.718324231     0.000000000
 C        0.049743607     2.745786378    -0.629421893
 C       -0.442891248     4.050158877    -0.634998809
 C       -1.659982860     4.357113421    -0.020091927
 C       -2.374955559     3.325824385     0.602731594
 C       -1.885360447     2.022144331     0.610194880
 C       -2.213836156     5.706992428    -0.001222966
 C       -1.629801294     6.780764688    -0.559589610
 C       -2.181712548     8.131362630    -0.541962456
 C       -3.398239467     8.440498999     0.072157957
 C       -3.888812938     9.746078886     0.065167125
 C       -3.179915017    10.767911606    -0.573755583
 C       -1.961445177    10.460143309    -1.194297431
 C       -1.467825640     9.158783389    -1.173395138
Si       -3.795358544    12.501511967    -0.603881364
 C       -3.394894972    13.332301698    -2.182212177
 C       -3.282460250    12.696664160    -3.356527774
 C       -2.962214716    13.355856004    -4.623057471
 C       -2.872603002    12.578615685    -5.786738137
 C       -2.572382891    13.152311371    -7.011328531
 C       -2.296473622    14.533744155    -7.106115108
 C       -2.384312525    15.314292777    -5.936922447
 C       -2.734207242    14.730625996    -4.726372001
 N       -1.992681933    15.108231246    -8.352553801
 C       -1.306207791    14.258064567    -9.340855259
 C       -1.492527228    16.493924951    -8.344199060
 C        0.093795163    13.810136793    -8.884383152
 C        0.953970765    13.270543373   -10.038803835
 N        1.218974297    14.218324105   -11.146541859
 C        1.373374863    15.569982571   -10.759731474
 C        2.338694222    15.868061194    -9.774885671
 C        2.530148030    17.174915223    -9.360162596
 C        1.795402303    18.228377765    -9.926463471
 C        0.859157134    17.931175261   -10.918699768
 C        0.651921353    16.623059492   -11.343390744
 C        0.392215824    13.967386001   -12.338215330
 C        2.037155778    19.592635347    -9.451090198
 C        1.395907669    20.671195885    -9.918440369
Si        1.654027328    22.394475827    -9.365833804
 C        1.907430829    23.484109023   -10.824519224
 C        2.312254285    22.942773797   -12.049061658
 C        2.505159174    23.767123051   -13.157003671
 C        2.309079449    25.147698505   -13.062823798
 C        1.909612086    25.687510849   -11.832772401
 C        1.711369095    24.867215571   -10.725267491
 C        2.499105007    26.048093684   -14.195327221
 C        2.879003774    25.660936618   -15.424823155
 C        3.069321794    26.560361212   -16.557954972
 C        2.869364896    27.940150873   -16.467097119
 C        3.062930025    28.763512934   -17.576323949
 C        3.466636418    28.223471854   -18.801288163
 C        3.668155890    26.839617739   -18.894906225
 C        3.469482268    26.019871987   -17.787589675
Si        3.726526750    29.296227570   -20.274808614
 C        3.764890400    31.102620141   -19.810273384
 C        5.367741995    28.791864902   -21.096625681
 C        2.314559485    29.016657520   -21.520240930
 C        0.102768319    22.951476413    -8.414829406
 C        3.161013762    22.533068921    -8.214475391
 C       -5.680260969    12.540437824    -0.347795263
 C       -2.967906110    13.468497308     0.810442767
 C       -0.634373678    -0.897798925    -1.553647719
 C       -0.646970499    -0.930210446     1.529908172
 H        1.007370572     2.567993544    -1.126879964
 H        0.132220199     4.832080810    -1.127572757
 H       -3.325760899     3.542306608     1.086310769
 H       -2.489442384     1.259493422     1.109183437
 H       -3.173404364     5.800883380     0.515449360
 H       -0.669925516     6.686219639    -1.076016113
 H       -3.973757650     7.660686821     0.567109871
 H       -4.841308548     9.927980208     0.570123604
 H       -1.365431422    11.220727537    -1.710410108
 H       -0.517977105     8.938923855    -1.656913837
 H       -3.265916829    14.422448398    -2.107929395
 H       -3.415448109    11.609687182    -3.457631471
 H       -3.054179954    11.504280132    -5.732614993
 H       -2.548106037    12.526560524    -7.898332108
 H       -2.189261884    16.381541689    -5.966609993
 H       -2.812937246    15.361502678    -3.839830401
 H       -1.229716694    16.812632385    -9.368990252
 H       -0.600063106    16.637209600    -7.713016624
 H       -2.296551907    17.165460215    -7.992896897
 H        0.514746385    12.912835321   -12.642600714
 H        0.765374160    14.582819790   -13.176964567
 H       -0.681596092    14.168179224   -12.201235994
 H        2.935148111    15.064955633    -9.347808798
 H        3.272539295    17.387291421    -8.590042527
 H        0.278395582    18.732834217   -11.378175141
 H       -0.084483119    16.431168693   -12.117557831
 H        2.806029354    19.648569602    -8.669727327
 H        0.623898353    20.579280761   -10.701089057
 H        2.486947440    21.869791542   -12.180596818
 H        2.814998567    23.322593074   -14.101102176
 H        1.751672040    26.760219498   -11.738925461
 H        1.398252648    25.343758160    -9.792308294
 H        2.306717408    27.102869370   -13.978536851
 H        3.071837022    24.605858204   -15.641292691
 H        2.558357909    28.386336965   -15.524233335
 H        2.890487061    29.835151737   -17.443673835
 H        3.984579504    26.361766189   -19.826453867
 H        3.629774302    24.947295622   -17.879937811
 H       -1.947567383    13.377607978    -9.566413156
 H       -1.241363547    14.835065552   -10.292235124
 H        0.611261525    14.657154132    -8.389725544
 H        0.001873291    13.034988445    -8.098244045
 H        1.952495583    12.969552388    -9.638036448
 H        0.496296928    12.345134671   -10.450392676
 H        2.263247919    -1.028647881     0.060694481
 H        2.258491267     0.561233745     0.867489974
 H        2.277145675     0.463327082    -0.913272891
 H        3.966697735    31.735793033   -20.692747922
 H        4.559119640    31.304448210   -19.068777362
 H        2.805339472    31.433603729   -19.375977713
 H        5.247581036    27.707934192   -21.388166768
 C        5.685838257    29.590545406   -22.373147514
 C        6.563841045    28.889304703   -20.132405233
 H        2.499722752    29.747720908   -22.359599047
 C        2.290723546    27.599407904   -22.119937199
 C        0.929766594    29.320710376   -20.919601280
 H        0.314527489    24.001130860    -8.059011150
 C       -1.150666751    22.996261439    -9.306651124
 C       -0.189982538    22.080031029    -7.180707221
 H        2.999135704    21.772201622    -7.397054252
 C        4.479512923    22.193279095    -8.933287641
 C        3.300292858    23.916772469    -7.555316082
 H       -5.872290345    12.048378318     0.648989251
 C       -6.255034331    13.967159949    -0.290724814
 C       -6.432656250    11.743817826    -1.428881070
 H       -3.384362980    14.515540259     0.758384539
 C       -3.287927581    12.894750727     2.201688715
 C       -1.440018874    13.553476406     0.643620600
 H       -0.173463331    -1.927052344    -1.525862431
 C       -2.164992423    -1.059264298    -1.576746355
 C       -0.189816319    -0.211469900    -2.858201219
 H       -1.772990593    -0.911796856     1.452598253
 C       -0.205757355    -2.404104140     1.582600709
 C       -0.252087875    -0.243642036     2.850091583
 H        4.905512468    29.512166297   -23.141118786
 H        6.608993461    29.209492177   -22.833766770
 H        5.858297357    30.657481456   -22.179054197
 H        6.432342408    28.295362645   -19.216538375
 H        6.787916452    29.920362747   -19.828366831
 H        7.472256409    28.505889190   -20.618606271
 H        3.218537501    27.329971161   -22.640217321
 H        1.487538404    27.521973246   -22.867325612
 H        2.085527838    26.822319737   -21.370242114
 H        0.834018498    30.345607622   -20.538685986
 H        0.658727782    28.635850943   -20.103187949
 H        0.152160022    29.205290558   -21.688277959
 H       -1.031018843    23.632830307   -10.194901236
 H       -1.998640868    23.412610112    -8.744262579
 H       -1.467608010    22.002274132    -9.650657578
 H        0.629176895    22.071415118    -6.450097455
 H       -0.418174670    21.035698439    -7.437790193
 H       -1.071465258    22.465719977    -6.648636904
 H        4.483269618    21.198957964    -9.400285497
 H        5.313168816    22.201358400    -8.216992675
 H        4.738602823    22.922672534    -9.714640721
 H        2.436019152    24.195933916    -6.939411053
 H        3.470079605    24.722769655    -8.283258616
 H        4.170561377    23.926065672    -6.882666837
 H       -5.823891250    14.579615004     0.511272417
 H       -7.337006140    13.928607403    -0.098401980
 H       -6.131574965    14.515205472    -1.235490571
 H       -6.119726888    10.692763346    -1.496116113
 H       -6.328222895    12.182667474    -2.432138276
 H       -7.509265793    11.731303762    -1.208683150
 H       -4.360321154    12.889880613     2.434897295
 H       -2.807464086    13.504950641     2.980206413
 H       -2.911015027    11.871186002     2.340061266
 H       -1.129342401    14.003529047    -0.309196716
 H       -0.946846721    12.574068395     0.724891456
 H       -1.008329736    14.180733571     1.436359804
 H       -2.555053874    -1.634523638    -0.727471723
 H       -2.472241717    -1.603012216    -2.481878826
 H       -2.696212663    -0.097072466    -1.602822575
 H        0.900039170    -0.131644063    -2.959545288
 H       -0.611699107     0.797196504    -2.975121172
 H       -0.536682088    -0.791312080    -3.725623608
 H       -0.518468401    -2.983333015     0.704217970
 H       -0.658205911    -2.900075751     2.453713649
 H        0.880273108    -2.523055326     1.692454187
 H       -0.572816649     0.806162198     2.908730806
 H        0.829595961    -0.268364244     3.038680290
 H       -0.725284801    -0.757636523     3.698864734

