187   

Si        0.000000000     0.000000000     0.000000000
 C        1.865378864     0.000000000     0.000000000
 C       -0.672520102     1.713474913     0.000000000
 C        0.162108847     2.814437739    -0.216397825
 C       -0.356362912     4.109321356    -0.214647818
 C       -1.715477256     4.334313033     0.020009140
 C       -2.550005132     3.229850481     0.240699753
 C       -2.037849578     1.935588537     0.226836954
 C       -2.301104235     5.670099669     0.031191595
 C       -1.615548330     6.806741440    -0.177920742
 C       -2.202263891     8.142256864    -0.166517570
 C       -3.562944072     8.358994101     0.069027751
 C       -4.085264599     9.650343958     0.071745033
 C       -3.263665150    10.750357516    -0.203761003
 C       -1.905240769    10.536079215    -0.456543334
 C       -1.382174646     9.245256794    -0.433383300
Si       -3.988939352    12.438038884    -0.190854893
 C       -2.699564656    13.728852700    -0.314076990
 C       -2.709539687    14.753405038    -1.177138994
 C       -1.665901839    15.775906875    -1.258251676
 C       -1.794040784    16.797812843    -2.206607980
 C       -0.833996447    17.792244854    -2.326181480
 C        0.351673728    17.733042288    -1.571604689
 C        0.498991858    16.681032037    -0.640639187
 C       -0.502591026    15.736357223    -0.480896246
 N        1.357422344    18.708653582    -1.650500030
 C        1.192089750    19.889677988    -2.508798292
 C        2.740975959    18.211775916    -1.559678746
 C        1.732329712    19.771143215    -3.947415446
 C        0.640568348    19.489492285    -4.999665359
 N        0.995583815    18.456759871    -5.998266436
 C        1.191798723    17.174267545    -5.387793981
 C        0.033113960    16.453237847    -5.055590618
 C        0.141415313    15.204860011    -4.462074302
 C        1.399191417    14.649034764    -4.184155395
 C        2.545168781    15.369968690    -4.526816274
 C        2.450199726    16.618214179    -5.133444807
 C        2.089427542    18.883929965    -6.889784856
 C        1.462067195    13.326296011    -3.555871653
 C        2.610325731    12.709923710    -3.250463279
Si        2.835555727    11.070737478    -2.470207085
 C        1.517310534     9.834079563    -2.816065450
 C        0.330907900    10.160434424    -3.481728391
 C       -0.640566942     9.191128967    -3.722337094
 C       -0.433691264     7.859988321    -3.342624529
 C        0.756982694     7.530761291    -2.686484400
 C        1.715040135     8.505688236    -2.417128508
 C       -1.476441752     6.876212191    -3.612987839
 C       -1.395101241     5.581636178    -3.263906616
 C       -2.417588381     4.574860727    -3.518942608
 C       -3.620102520     4.858391012    -4.169894672
 C       -4.564084256     3.854330417    -4.387510239
 C       -4.319811932     2.545218525    -3.961322988
 C       -3.112949695     2.259098743    -3.310509283
 C       -2.175173105     3.262358420    -3.093235359
Si       -5.543847300     1.199959997    -4.233286344
 C       -6.749083726     1.618975092    -5.591578712
 C       -4.600909255    -0.402156781    -4.644441028
 C       -6.490590635     0.931965578    -2.601726454
 C        4.518821049    10.441870058    -3.107977481
 C        2.933006311    11.324137755    -0.585156263
 C       -5.191014471    12.593565966    -1.660214317
 C       -4.941574654    12.681019287     1.436863912
 C       -0.602001282    -0.938932246    -1.543797488
 C       -0.671484350    -0.890578934     1.541962486
 H        1.234954779     2.702789983    -0.394036789
 H        0.314867105     4.949557074    -0.382503029
 H       -3.613454101     3.383485402     0.415491291
 H       -2.737857679     1.113772235     0.401711791
 H       -3.378052596     5.695738670     0.219659997
 H       -0.539565767     6.784215099    -0.377175543
 H       -4.224634685     7.516768071     0.262095710
 H       -5.151826677     9.759151484     0.286682914
 H       -1.223819929    11.360312966    -0.692715509
 H       -0.322120099     9.091878228    -0.642449695
 H       -1.883030852    13.610037607     0.416879472
 H       -3.514391555    14.905531042    -1.908538183
 H       -2.676941468    16.836255026    -2.845365187
 H       -0.993005802    18.593213443    -3.042672820
 H        1.396383751    16.613823564    -0.033156829
 H       -0.369827808    14.943592503     0.256809506
 H        3.460857029    19.007807952    -1.806310343
 H        2.928184905    17.351486863    -2.226650013
 H        2.945244994    17.901424282    -0.518352298
 H        1.732591206    19.741399485    -7.486882381
 H        2.322910015    18.068919887    -7.596892247
 H        3.015384153    19.180390907    -6.375940054
 H       -0.944175474    16.881714403    -5.271978864
 H       -0.764136884    14.655562323    -4.199249923
 H        3.533081406    14.954700424    -4.326270410
 H        3.355979957    17.153957830    -5.400380862
 H        0.472118447    12.901975808    -3.339477002
 H        3.575672921    13.201643022    -3.466869273
 H        0.119901716    11.174818158    -3.834631212
 H       -1.567445828     9.474236604    -4.218035790
 H        0.948220004     6.502270572    -2.386025330
 H        2.614939931     8.186032243    -1.883426809
 H       -2.359694401     7.265296072    -4.124985427
 H       -0.509942716     5.201337313    -2.741998574
 H       -3.831251209     5.870596558    -4.508863025
 H       -5.487116417     4.132893875    -4.901460088
 H       -2.867410655     1.254294555    -2.951453070
 H       -1.246062072     3.024197719    -2.572503723
 H        0.123038701    20.196828590    -2.508365262
 H        1.732136564    20.720189496    -1.987340751
 H        2.268746235    20.699909771    -4.213534324
 H        2.501334557    18.974341183    -3.987520611
 H       -0.305011897    19.156168092    -4.510952294
 H        0.386498801    20.420005951    -5.552357936
 H        2.262946143    -1.029312374     0.049758002
 H        2.262984693     0.549716286     0.872066905
 H        2.274772562     0.470268744    -0.911120940
 H       -7.459032052     0.791075986    -5.765341102
 H       -6.220132020     1.808523958    -6.543560329
 H       -7.340643657     2.519751603    -5.351979417
 H       -3.954916686    -0.619972898    -3.743615336
 C       -5.519455833    -1.616552089    -4.866122448
 C       -3.670821068    -0.246095627    -5.860831886
 H       -7.245510570     0.121561289    -2.811465041
 C       -5.591432585     0.462513911    -1.443249469
 C       -7.252543709     2.192177459    -2.151599766
 H        5.224838864    11.315817805    -2.994457464
 C        5.116955602     9.261413213    -2.324499055
 C        4.457844216    10.069383331    -4.600291049
 H        3.140662734    10.305770737    -0.146962978
 C        4.071841150    12.270560766    -0.164929663
 C        1.611595379    11.841532922     0.008849361
 H       -5.510011309    13.675606944    -1.683163987
 C       -4.508226805    12.262091855    -3.000875944
 C       -6.459364465    11.733288013    -1.527108760
 H       -5.740406729    11.884208911     1.450255718
 C       -4.049942988    12.478714243     2.675132154
 C       -5.633148819    14.052006875     1.532635885
 H       -0.062614727    -1.930114215    -1.516302149
 C       -2.114107534    -1.224642499    -1.545790294
 C       -0.225476347    -0.230980712    -2.857420922
 H       -1.795671488    -0.886621390     1.437245072
 C       -0.213515074    -2.355545276     1.653204184
 C       -0.318840181    -0.154481416     2.847121828
 H       -6.167598832    -1.834323478    -4.007597936
 H       -4.914995885    -2.519966224    -5.032139033
 H       -6.161541710    -1.511533058    -5.750651342
 H       -2.944552172     0.572219894    -5.748484242
 H       -4.215794484    -0.076605506    -6.798811235
 H       -3.082149998    -1.162645635    -6.006487644
 H       -5.098577162    -0.498127579    -1.640348872
 H       -6.194203034     0.316676555    -0.535458502
 H       -4.815101781     1.197652479    -1.182269633
 H       -7.978928288     2.550437191    -2.891984473
 H       -6.583049271     3.030603536    -1.908722168
 H       -7.826361099     1.980156290    -1.238477095
 H        5.194515579     9.444923161    -1.245612325
 H        6.140014676     9.060843840    -2.675530770
 H        4.560251478     8.325847985    -2.469818094
 H        4.112840170    10.891810015    -5.242671548
 H        3.808473578     9.204345448    -4.798713683
 H        5.457675446     9.793136158    -4.963268175
 H        5.062156220    11.944166121    -0.505760059
 H        4.129936284    12.324039026     0.931699753
 H        3.918821436    13.301371808    -0.515217977
 H        0.772676350    11.147463458    -0.144319301
 H        1.314791443    12.822807598    -0.389815302
 H        1.709231123    11.965574234     1.096627208
 H       -3.615856315    12.871395978    -3.201671261
 H       -5.202387054    12.443772788    -3.832628435
 H       -4.208903064    11.206025702    -3.073874754
 H       -7.040057408    11.948317367    -0.621202585
 H       -6.247828913    10.654959147    -1.545154241
 H       -7.133036084    11.924963048    -2.374873629
 H       -3.555868328    11.496893246     2.699088910
 H       -4.656950180    12.537905516     3.589661634
 H       -3.270550857    13.246820971     2.771978459
 H       -6.350856318    14.235064900     0.722749225
 H       -4.921515075    14.890126526     1.541991512
 H       -6.202780698    14.121866723     2.470293382
 H       -2.437490063    -1.848766117    -0.703016590
 H       -2.390096355    -1.776100890    -2.456941955
 H       -2.723995671    -0.309763424    -1.538580640
 H        0.854143758    -0.071095479    -2.972601445
 H       -0.717492153     0.745557244    -2.976907498
 H       -0.537485736    -0.840161726    -3.717977373
 H       -0.491300613    -2.965693499     0.784192252
 H       -0.685063203    -2.831034084     2.525625063
 H        0.870259233    -2.455471877     1.799087335
 H       -0.667300795     0.888282749     2.864472756
 H        0.758526090    -0.146631906     3.058732283
 H       -0.798097241    -0.652111754     3.702239473

