187   

Si        0.000000000     0.000000000     0.000000000
 C        1.865002178     0.000000000     0.000000000
 C       -0.677961583     1.711610860     0.000000000
 C        0.097696568     2.791811539    -0.433292896
 C       -0.423163268     4.085475302    -0.430252420
 C       -1.730812891     4.328021161    -0.001474482
 C       -2.508741259     3.244128548     0.426341501
 C       -1.991527111     1.951667998     0.425028188
 C       -2.317723823     5.663582661     0.019069622
 C       -1.679778222     6.782423438    -0.363483385
 C       -2.261781420     8.119833870    -0.344935191
 C       -3.568910526     8.365788761     0.083180815
 C       -4.086246691     9.661097097     0.084743828
 C       -3.295292042    10.739140279    -0.320906265
 C       -1.981552988    10.497720508    -0.746171946
 C       -1.475062074     9.201710239    -0.763015169
Si       -3.928916097    12.466463730    -0.337563631
 C       -2.538060979    13.548914805     0.142086803
 C       -2.140113965    14.643759396    -0.517702922
 C       -1.020373159    15.489945148    -0.105899315
 C       -0.705307184    16.610318975    -0.885667163
 C        0.343712676    17.448879524    -0.546384633
 C        1.175287668    17.144069841     0.553383926
 C        0.867854759    16.007531553     1.328017079
 C       -0.225701891    15.214025971     1.011096465
 N        2.236920186    17.998575378     0.891721924
 C        2.837722401    18.802913305    -0.189073733
 C        3.212505610    17.489979362     1.869159470
 C        3.282183394    18.013831760    -1.434188688
 C        4.694841137    17.412909798    -1.304929532
 N        4.818541460    16.029873955    -1.817091581
 C        4.189979966    15.069988785    -0.964278389
 C        4.845519812    14.797734207     0.250087945
 C        4.305436524    13.880233235     1.136066611
 C        3.122532566    13.190947296     0.827216835
 C        2.487690696    13.452307709    -0.388845629
 C        3.014883981    14.380003197    -1.283554314
 C        4.475043855    15.914613807    -3.244936785
 C        2.608260423    12.235547372     1.810128760
 C        1.495987554    11.504060963     1.661739145
Si        0.923253442    10.329023397     2.945550202
 C        1.429454749    10.901746312     4.621058289
 C        1.425856345    12.274169571     4.907961898
 C        1.803880644    12.733435864     6.166060852
 C        2.183157883    11.835059554     7.172498263
 C        2.177534067    10.467383327     6.886345701
 C        1.802340569    10.004174252     5.625227641
 C        2.571454508    12.364464311     8.475637322
 C        2.957942758    11.614825009     9.521824903
 C        3.346250577    12.144174946    10.824987755
 C        3.352270703    13.511501187    11.112295380
 C        3.730948255    13.974018123    12.372584553
 C        4.106764387    13.075967217    13.376379196
 C        4.101326511    11.703837030    13.090897687
 C        3.728273596    11.245720730    11.830482713
Si        4.609059062    13.670718224    15.044669938
 C        4.156179518    15.462345715    15.299231940
 C        3.749800072    12.583656676    16.349811975
 C        6.492547955    13.480593874    15.243558410
 C       -0.971976924    10.228108546     2.879318958
 C        1.667974392     8.616607779     2.590622236
 C       -4.535072883    12.862635241    -2.097742021
 C       -5.390410105    12.699275156     0.853685372
 C       -0.624470042    -0.912238230    -1.549227891
 C       -0.649212082    -0.915683463     1.537889362
 H        1.127216753     2.664044735    -0.779255877
 H        0.202665297     4.909115017    -0.769271970
 H       -3.530232913     3.410742560     0.763184990
 H       -2.646306986     1.145863000     0.768439248
 H       -3.348622376     5.705579432     0.381971249
 H       -0.650579040     6.735457853    -0.733493153
 H       -4.198886377     7.543162932     0.415550790
 H       -5.118672658     9.791912056     0.418883967
 H       -1.318669369    11.307743630    -1.070728448
 H       -0.454426632     9.030373950    -1.102079602
 H       -2.027184889    13.221561643     1.064013889
 H       -2.633340252    14.997946742    -1.432406462
 H       -1.307759991    16.844876203    -1.763652630
 H        0.519722124    18.341177617    -1.138755388
 H        1.483758136    15.732914292     2.179635557
 H       -0.447134274    14.346606540     1.637220768
 H        4.016832611    18.225666809     2.027142271
 H        3.669429155    16.529463440     1.570542452
 H        2.707169712    17.353363005     2.843455387
 H        5.149672156    16.570446330    -3.821891612
 H        3.436546324    16.180754616    -3.493732267
 H        4.662074272    14.877866693    -3.576941999
 H        5.782306972    15.302917129     0.477005658
 H        4.817070341    13.680987866     2.078313823
 H        1.561213380    12.935542644    -0.644615836
 H        2.494298322    14.575693151    -2.216570042
 H        3.235951734    12.178832246     2.712608598
 H        0.880406598    11.562202312     0.752472243
 H        1.134468631    13.021617096     4.161490915
 H        1.799957758    13.802525161     6.369410964
 H        2.466325363     9.748334002     7.650638807
 H        1.815430197     8.922876528     5.462724059
 H        2.527842657    13.454369816     8.557952552
 H        3.000574912    10.524782680     9.439625991
 H        3.059641688    14.230889518    10.349745047
 H        3.715839949    15.054868194    12.537470584
 H        4.384890056    10.955471876    13.836350756
 H        3.731699798    10.176506470    11.627147895
 H        2.078236666    19.567451358    -0.484458648
 H        3.690936142    19.382227024     0.227574265
 H        2.552344482    17.200929254    -1.636162462
 H        3.233819125    18.670618826    -2.321276094
 H        5.432343391    18.035377501    -1.858721730
 H        5.026301256    17.415455307    -0.242899995
 H        2.262891080    -1.029069504     0.055863410
 H        2.259753583     0.556532758     0.869652292
 H        2.276182837     0.466136465    -0.912386513
 H        4.422117101    15.799593691    16.316987459
 H        3.069373965    15.617673761    15.171799655
 H        4.677418701    16.121969310    14.583623232
 H        4.111331001    11.530820919    16.161868172
 C        4.116690623    12.956111140    17.797353874
 C        2.217350210    12.587719333    16.203632620
 H        6.738087947    13.917785744    16.254389087
 C        6.970140978    12.017487084    15.228822626
 C        7.280087603    14.266873688    14.179359400
 H       -1.247238627    10.139004856     1.785338794
 C       -1.551662136     9.004223254     3.608479559
 C       -1.630117980    11.500713588     3.440765542
 H        1.287188101     7.939292625     3.409684556
 C        1.223009764     8.023493274     1.243709246
 C        3.206264292     8.622114994     2.649823048
 H       -4.803342639    13.958594774    -2.094742864
 C       -3.446960845    12.638493956    -3.163937092
 C       -5.789226179    12.065956451    -2.498798325
 H       -6.203087507    12.010283343     0.480488039
 C       -5.067318633    12.306569634     2.305440637
 C       -5.943309522    14.136215424     0.840888244
 H       -0.147780323    -1.934302516    -1.517215408
 C       -2.152226231    -1.098533724    -1.572836271
 C       -0.190472843    -0.223840061    -2.856212775
 H       -1.773935690    -0.925347471     1.441797854
 C       -0.173574630    -2.376691447     1.628216572
 C       -0.294428878    -0.190911853     2.848920138
 H        5.194452609    12.906474562    17.999392702
 H        3.640435271    12.254190477    18.497352468
 H        3.768399635    13.957434623    18.083336165
 H        1.875984308    12.277713039    15.205471721
 H        1.768090650    13.566636231    16.417163853
 H        1.768647410    11.879611319    16.914790104
 H        6.517638544    11.403151005    16.017449074
 H        8.056701450    11.975758567    15.393950117
 H        6.788595105    11.519231334    14.266067132
 H        7.059099630    15.341956625    14.178609462
 H        7.111318266    13.891755001    13.159632717
 H        8.359787865    14.175532794    14.365635665
 H       -1.198175465     8.047486479     3.201335873
 H       -2.646363662     8.990049008     3.500816669
 H       -1.347655864     9.007279489     4.687254331
 H       -1.325363277    12.417478090     2.918445213
 H       -1.435840261    11.647195420     4.512935156
 H       -2.722585686    11.431173534     3.336781267
 H        0.130024243     7.938206033     1.153232839
 H        1.619770216     7.004092063     1.132450781
 H        1.591343555     8.596504261     0.382385200
 H        3.607000702     8.975994126     3.609375749
 H        3.661593976     9.233570935     1.857549537
 H        3.592340297     7.602268658     2.512865123
 H       -2.523842905    13.203752740    -2.976023464
 H       -3.812090729    12.961561052    -4.148855944
 H       -3.169915374    11.579835993    -3.271642349
 H       -6.654366070    12.260487245    -1.852124771
 H       -5.620456535    10.979950042    -2.515800623
 H       -6.100610285    12.341810202    -3.516863557
 H       -4.713681251    11.271137325     2.407751543
 H       -5.970851980    12.384013270     2.927135803
 H       -4.320092815    12.967651508     2.767667897
 H       -6.288328900    14.462922457    -0.148425902
 H       -5.215421053    14.877634850     1.201426754
 H       -6.813861929    14.211034363     1.508150098
 H       -2.533519603    -1.676261208    -0.721324327
 H       -2.449286587    -1.651987783    -2.475604756
 H       -2.698773445    -0.145303768    -1.605483324
 H        0.898048013    -0.126523421    -2.957543627
 H       -0.627773795     0.777734345    -2.976975958
 H       -0.527597734    -0.812208680    -3.721728668
 H       -0.453971194    -2.980048706     0.755181744
 H       -0.631344314    -2.866997705     2.499771346
 H        0.912645749    -2.466290477     1.761921440
 H       -0.651747708     0.848267582     2.881204455
 H        0.784630436    -0.175381883     3.052210879
 H       -0.762240539    -0.703242876     3.701695316

