187   

Si        0.000000000     0.000000000     0.000000000
 C        1.865511573     0.000000000     0.000000000
 C       -0.676217747     1.712194219     0.000000000
 C        0.152726154     2.816544023    -0.220685004
 C       -0.371602922     4.109037220    -0.218265686
 C       -1.734924811     4.326801242    -0.003504131
 C       -2.564857587     3.218904587     0.214934158
 C       -2.043738678     1.928075235     0.218219790
 C       -2.326742797     5.660568555     0.007523881
 C       -1.643104517     6.801722930    -0.183105710
 C       -2.233110668     8.136214669    -0.172430362
 C       -1.399381143     9.242175949    -0.385959381
 C       -1.916562613    10.534948672    -0.384760284
 C       -3.285653113    10.750252734    -0.184306450
 C       -4.120981813     9.648106637     0.026540288
 C       -3.597450522     8.355766689     0.036744122
Si       -3.981711193    12.452747320    -0.180391474
 C       -5.760187449    12.391509327    -0.595581769
 C       -6.748844986    12.980710499     0.089390536
 C       -8.162693646    12.903497256    -0.282598244
 C       -9.111278475    13.562467994     0.512219208
 C      -10.460993661    13.519755381     0.202652053
 C      -10.919222334    12.765494811    -0.898804403
 C       -9.967478342    12.102542253    -1.696080741
 C       -8.613659915    12.193991612    -1.398787719
 N      -12.294100465    12.730905000    -1.202130018
 C      -13.229312027    12.787778790    -0.064038803
 C      -12.723296660    11.774686039    -2.237225154
 C      -13.107707104    11.577425684     0.875729834
 C      -14.062430610    11.724308516     2.071494199
 N      -14.142018339    10.509010906     2.901099617
 C      -14.666551146     9.351181234     2.297689279
 C      -15.608263419     9.456325193     1.251707891
 C      -16.126886454     8.318147606     0.655208996
 C      -15.773644511     7.037819256     1.102926841
 C      -14.865035740     6.934868956     2.160175829
 C      -14.321946010     8.064907650     2.756862916
 C      -12.959233229    10.331969864     3.761458562
 C      -16.351176538     5.869307657     0.436678760
 C      -16.085657956     4.602043133     0.779356909
Si      -16.777505096     3.109850333    -0.016904228
 C      -17.453192854     1.975799902     1.264046248
 C      -17.792009871     2.463534516     2.532097305
 C      -18.303679893     1.605903566     3.502781434
 C      -18.498754305     0.246194067     3.227957627
 C      -18.165370266    -0.235630242     1.958648794
 C      -17.649229512     0.618810293     0.985495452
 C      -19.037483140    -0.612248938     4.277789419
 C      -19.268100752    -1.929569880     4.146229030
 C      -19.806811396    -2.787944214     5.196049646
 C      -20.140581005    -2.308211843     6.465206108
 C      -20.653061062    -3.164803255     7.439435820
 C      -20.837639307    -4.523689906     7.166226148
 C      -20.503177249    -5.007456257     5.894074255
 C      -19.996765909    -4.149147201     4.922125961
Si      -21.512875730    -5.667338967     8.440935091
 C      -21.515633699    -4.883804958    10.133801178
 C      -23.299155561    -6.141497117     7.985212749
 C      -20.450764756    -7.247021640     8.447726169
 C      -18.161053977     3.559334741    -1.241622971
 C      -15.383430802     2.229670327    -0.967508381
 C       -3.694269033    13.232818402     1.529937922
 C       -3.094070643    13.510520852    -1.489971333
 C       -0.605666366    -0.926354371    -1.548796239
 C       -0.661742122    -0.898334044     1.541966355
 H        1.226662706     2.709488625    -0.396559223
 H        0.296012131     4.951685252    -0.388596240
 H       -3.629677486     3.366411367     0.385420188
 H       -2.739168482     1.103319991     0.398144837
 H       -3.405534498     5.681126287     0.187955156
 H       -0.564276013     6.780279974    -0.363312889
 H       -0.334445509     9.092257094    -0.552150997
 H       -1.217779956    11.359349448    -0.550545289
 H       -5.198224988     9.759177534     0.189265218
 H       -4.266191281     7.513960503     0.206707755
 H       -5.971202503    11.809500604    -1.508663436
 H       -6.572730446    13.572650490     0.996955121
 H       -8.783652982    14.130434407     1.383541368
 H      -11.164587342    14.071487644     0.819229683
 H      -10.274251556    11.516054374    -2.556327751
 H       -7.896570860    11.683098741    -2.044056935
 H      -13.813986971    11.846884919    -2.385752123
 H      -12.475585437    10.726973401    -1.999383280
 H      -12.252222471    12.046211284    -3.199311221
 H      -12.621417040    11.308626139     4.146769487
 H      -12.111268764     9.851499408     3.245916073
 H      -13.237861855     9.722293315     4.640077950
 H      -15.929599405    10.431174623     0.897454356
 H      -16.834228245     8.425625028    -0.167769746
 H      -14.572707683     5.950561253     2.530756357
 H      -13.621248573     7.937747197     3.576093886
 H      -17.036081115     6.133110775    -0.379723684
 H      -15.386871886     4.371087913     1.601008535
 H      -17.665381782     3.517474352     2.801005521
 H      -18.557160125     2.000832287     4.484872815
 H      -18.307426365    -1.287750307     1.719472678
 H      -17.405903144     0.184786607     0.011876539
 H      -19.253377338    -0.101054573     5.220675029
 H      -19.052755134    -2.440885315     3.203454404
 H      -20.002947935    -1.255347517     6.704757479
 H      -20.896627144    -2.730912522     8.413231471
 H      -20.625226051    -6.060138160     5.623736600
 H      -19.744501448    -4.543171559     3.939505101
 H      -13.053600676    13.736752426     0.491831036
 H      -14.264442871    12.865291463    -0.467704664
 H      -13.327470798    10.642547858     0.323651396
 H      -12.063792269    11.469997957     1.228558176
 H      -13.744526369    12.570999823     2.721404497
 H      -15.090118315    11.983428701     1.727955149
 H        2.263462067    -1.029765580     0.039796272
 H        2.262517008     0.542542789     0.877155387
 H        2.274019678     0.479315681    -0.906918905
 H      -21.877893259    -5.592630809    10.899727376
 H      -22.166637617    -3.992833787    10.171174219
 H      -20.497219375    -4.570565689    10.427361628
 H      -23.669164341    -6.785365573     8.834816004
 C      -24.225357974    -4.916319714     7.876462610
 C      -23.409304262    -6.959049258     6.685823582
 H      -20.539202427    -7.683048429     7.410176195
 C      -18.962161956    -6.955221548     8.709963911
 C      -20.937509369    -8.310289275     9.448280819
 H      -17.719858459     4.329722326    -1.938285820
 C      -18.636494248     2.367315677    -2.091289224
 C      -19.382141478     4.185730207    -0.543463785
 H      -15.862312062     1.338021031    -1.466313901
 C      -14.754740062     3.107637922    -2.063760709
 C      -14.270946390     1.712717569    -0.038023336
 H       -4.222692505    14.229668524     1.509632252
 C       -4.299753552    12.390857339     2.668069377
 C       -2.208559763    13.487726961     1.840974311
 H       -2.010132308    13.546932167    -1.178817925
 C       -3.164490175    12.889285631    -2.896286020
 C       -3.620130053    14.955240584    -1.552210418
 H       -0.096262510    -1.932838032    -1.518800688
 C       -2.126072629    -1.163630114    -1.575777892
 C       -0.194062360    -0.221898626    -2.854741870
 H       -1.786483909    -0.890744169     1.444355504
 C       -0.206910873    -2.365236049     1.641067239
 C       -0.298651058    -0.170771481     2.849190171
 H      -24.267213446    -4.317226833     8.795182579
 H      -25.256358905    -5.240180166     7.674145104
 H      -23.947324098    -4.243054970     7.052708068
 H      -22.844856541    -7.899650335     6.713465379
 H      -23.086009986    -6.396401245     5.798709849
 H      -24.458105575    -7.236750067     6.505315340
 H      -18.526861740    -6.244223424     7.993095871
 H      -18.375028843    -7.880243852     8.619631876
 H      -18.771878567    -6.565735055     9.718837073
 H      -21.976726325    -8.621592644     9.281088877
 H      -20.849394490    -7.986392627    10.493809147
 H      -20.326091290    -9.219801182     9.356246589
 H      -17.841464666     1.924085806    -2.704161686
 H      -19.417199610     2.694557663    -2.793360910
 H      -19.085665295     1.564532305    -1.489628530
 H      -19.138552083     5.071320781     0.059343234
 H      -19.906083986     3.476578715     0.113823014
 H      -20.117937515     4.513259903    -1.291113848
 H      -15.476711832     3.446517257    -2.817708836
 H      -13.986835505     2.538846559    -2.607263092
 H      -14.250660884     3.998249620    -1.661735688
 H      -14.639370536     1.041445869     0.750620466
 H      -13.709917714     2.521738834     0.449593790
 H      -13.536850980     1.132997963    -0.615424479
 H       -5.373796936    12.195002391     2.547061719
 H       -4.187042451    12.915710503     3.627048302
 H       -3.800940767    11.418230133     2.789200345
 H       -1.724986999    14.168739175     1.129131454
 H       -1.614529461    12.563641358     1.879861972
 H       -2.107071326    13.957107936     2.830350677
 H       -2.768650130    11.864863574    -2.940861007
 H       -2.562765558    13.481392478    -3.600411706
 H       -4.184387832    12.869097323    -3.304431714
 H       -3.518585887    15.496880455    -0.603001801
 H       -4.674848573    15.014022253    -1.857502506
 H       -3.052386414    15.530981447    -2.297084424
 H       -2.495330006    -1.728364099    -0.710459658
 H       -2.397734238    -1.752677363    -2.463981870
 H       -2.702209600    -0.230001683    -1.641436271
 H        0.890526191    -0.086553798    -2.954944056
 H       -0.664642952     0.764670367    -2.974250455
 H       -0.510031261    -0.820213330    -3.721286692
 H       -0.492207893    -2.969035078     0.769956952
 H       -0.674554796    -2.844812194     2.513340172
 H        0.877487427    -2.468855538     1.779208025
 H       -0.645258483     0.872321042     2.875504725
 H        0.780257951    -0.166082334     3.053003855
 H       -0.772932853    -0.673101175     3.704351820

