187   

Si        0.000000000     0.000000000     0.000000000
 C        1.865239497     0.000000000     0.000000000
 C       -0.671404280     1.714785547     0.000000000
 C        0.149773991     2.809199137    -0.289891554
 C       -0.366768738     4.104693276    -0.287732565
 C       -1.716176581     4.335798318    -0.007097418
 C       -2.538876193     3.238013135     0.278812177
 C       -2.024515154     1.944076828     0.283610590
 C       -2.298920800     5.673406373     0.006145438
 C       -1.620162410     6.806101885    -0.243936588
 C       -2.202216118     8.144294338    -0.230898616
 C       -3.551905206     8.375401454     0.049799041
 C       -4.067601960     9.670589949     0.051796113
 C       -3.245859435    10.764972974    -0.241032318
 C       -1.893471024    10.536222380    -0.523974019
 C       -1.378846306     9.242055706    -0.513309345
Si       -3.926264456    12.474077504    -0.238419970
 C       -2.992244358    13.651476874    -1.277246038
 C       -2.309484831    13.346455448    -2.388749755
 C       -1.575000187    14.329095393    -3.188501668
 C       -0.893091672    13.902399953    -4.335490186
 C       -0.183665557    14.795033918    -5.125018684
 C       -0.070066525    16.149315705    -4.748001377
 C       -0.746946792    16.576845004    -3.588086730
 C       -1.502568122    15.682360221    -2.843160486
 N        0.644405628    17.074250530    -5.532359982
 C        1.550295703    16.545178784    -6.566334496
 C        1.200179644    18.238997381    -4.820862745
 C        2.699750174    15.671540092    -6.031856565
 C        4.080328764    16.349483335    -6.071969813
 N        4.661720062    16.565866218    -7.411484879
 C        4.620110653    15.495857827    -8.320764276
 C        4.744231910    14.171473718    -7.845421392
 C        4.705313236    13.105693081    -8.728080767
 C        4.640322213    13.312180814   -10.114126677
 C        4.561316526    14.623996028   -10.586115058
 C        4.546900261    15.703806157    -9.711258472
 C        4.430208236    17.913685040    -7.953233050
 C        4.601816380    12.143785961   -10.992465755
 C        4.539391797    12.190869869   -12.330473109
Si        4.494441745    10.677848530   -13.362407860
 C        3.669211416     9.334197826   -12.411679650
 C        2.568669291     9.684176199   -11.617346081
 C        1.897382671     8.719408759   -10.872324537
 C        2.299433407     7.380226299   -10.908906039
 C        3.393169071     7.030990079   -11.710012589
 C        4.069455142     7.995577677   -12.456810072
 C        1.613081840     6.348187953   -10.137416661
 C        0.556318505     6.588672759    -9.342565364
 C       -0.157291791     5.589724945    -8.556348873
 C        0.193428413     4.238035884    -8.546931285
 C       -0.523733442     3.322571758    -7.775803129
 C       -1.602984458     3.743237935    -6.992920226
 C       -1.954877714     5.100179315    -6.998989824
 C       -1.240554128     6.010040571    -7.771739925
Si       -2.567379479     2.559255743    -5.965839094
 C       -1.776547195     0.869421633    -5.942784830
 C       -2.648631620     3.279737396    -4.204918399
 C       -4.340273514     2.386479720    -6.633875700
 C        3.509215958    11.032392020   -14.948278329
 C        6.264357389    10.174746867   -13.838608844
 C       -5.730656114    12.439015855    -0.844658713
 C       -3.896577794    13.128406809     1.549018920
 C       -0.609064731    -0.926690130    -1.546521102
 C       -0.663952375    -0.900267286     1.539635254
 H        1.212591553     2.691917690    -0.520318797
 H        0.296245142     4.939645370    -0.508606969
 H       -3.591796391     3.395897271     0.504348846
 H       -2.713664568     1.127948474     0.518285129
 H       -3.366489882     5.704828886     0.241876011
 H       -0.552139901     6.774664881    -0.479974259
 H       -4.213930552     7.540904830     0.272961439
 H       -5.129700060     9.787707249     0.284395006
 H       -1.203379230    11.354845957    -0.754395325
 H       -0.324057550     9.084831766    -0.731703789
 H       -3.045853886    14.692062977    -0.917105632
 H       -2.244432122    12.324664077    -2.786407917
 H       -0.933059115    12.851657653    -4.627144840
 H        0.292524044    14.429570199    -6.030341257
 H       -0.702420575    17.615270089    -3.275624223
 H       -2.035199796    16.047641205    -1.963718967
 H        1.828238185    18.839155430    -5.498696637
 H        1.803622798    17.962418334    -3.941239703
 H        0.371148845    18.892728058    -4.493240534
 H        4.499808048    18.663999506    -7.148493656
 H        3.457232794    18.029281225    -8.458331452
 H        5.233334726    18.151858544    -8.676499899
 H        4.870848957    13.980842761    -6.783333039
 H        4.757555604    12.087993244    -8.337028779
 H        4.505587416    14.811762912   -11.659176902
 H        4.471180918    16.704920474   -10.121440969
 H        4.623065305    11.193666469   -10.435656095
 H        4.530525448    13.143620204   -12.876245765
 H        2.203125662    10.715394556   -11.549434760
 H        1.049068351     9.020108500   -10.259602373
 H        3.721199683     5.994546550   -11.754307792
 H        4.913984971     7.665196169   -13.066434612
 H        2.017964437     5.339520216   -10.245583242
 H        0.159930800     7.605206812    -9.244253928
 H        1.031540985     3.887663829    -9.145803606
 H       -0.205446821     2.277183050    -7.809164712
 H       -2.786506768     5.486906905    -6.402115312
 H       -1.527806876     7.059857617    -7.764326794
 H        0.930395043    15.964030965    -7.290444455
 H        1.943110192    17.403192275    -7.154709667
 H        2.487299221    15.363088956    -4.987560788
 H        2.726407732    14.721530122    -6.603455231
 H        4.037866971    17.321852224    -5.533983751
 H        4.811490643    15.722952135    -5.503350948
 H        2.263129152    -1.029548995     0.044377999
 H        2.261583271     0.545607025     0.875586399
 H        2.275844376     0.475614034    -0.908048727
 H       -2.333244711     0.179208882    -5.284000873
 H       -0.738593630     0.923784513    -5.566942378
 H       -1.748540441     0.419241129    -6.950159546
 H       -3.252473850     4.230677833    -4.286492750
 C       -3.353979245     2.358703720    -3.195671055
 C       -1.260477128     3.656150281    -3.659106432
 H       -4.829866911     1.599990611    -5.989105300
 C       -5.178756214     3.672910109    -6.528338921
 C       -4.374284950     1.896363989    -8.093369641
 H        4.056170088    11.867639422   -15.474027114
 C        3.447112699     9.826234955   -15.901754738
 C        2.075808562    11.511424013   -14.655510303
 H        6.165201132     9.234667191   -14.454885525
 C        6.987038948    11.229740105   -14.695416404
 C        7.132627911     9.852611831   -12.608874812
 H       -6.296162493    11.797017274    -0.109499085
 C       -6.390130524    13.829248390    -0.866447022
 C       -5.862831899    11.800231700    -2.238610866
 H       -4.344507467    14.162947261     1.510356903
 C       -4.735936578    12.280356725     2.520089587
 C       -2.463618427    13.247229550     2.098499907
 H       -0.131367320    -1.947977503    -1.495669209
 C       -2.135529521    -1.118646527    -1.589603543
 C       -0.156430960    -0.253324500    -2.853826311
 H       -1.787966954    -0.905405302     1.434390209
 C       -0.194805563    -2.362085332     1.646623538
 C       -0.317357098    -0.165399805     2.847201815
 H       -4.392730337     2.132879155    -3.463587250
 H       -3.384009557     2.843508124    -2.206584349
 H       -2.827405502     1.405814745    -3.045097654
 H       -0.716176838     4.363290161    -4.299722046
 H       -0.610053307     2.787488102    -3.492444608
 H       -1.366162980     4.147849891    -2.678507074
 H       -5.256828067     4.060479410    -5.504457887
 H       -6.208600431     3.477685502    -6.860568898
 H       -4.799952543     4.481701303    -7.168588008
 H       -3.871594197     0.932089993    -8.241756130
 H       -3.928141045     2.615075106    -8.795711099
 H       -5.414424911     1.753684213    -8.419177105
 H        4.434765811     9.478794932   -16.230776267
 H        2.897057851    10.096069761   -16.814870236
 H        2.917114431     8.965540540   -15.469073677
 H        2.035692770    12.405942904   -14.019322016
 H        1.456047515    10.737166165   -14.180465129
 H        1.568242700    11.776956442   -15.593647783
 H        6.471183025    11.454040544   -15.637644282
 H        7.987193120    10.866819167   -14.973124416
 H        7.142672678    12.178638033   -14.163285804
 H        6.711825929     9.063840156   -11.970164074
 H        7.311677433    10.731064767   -11.971566375
 H        8.121971443     9.495986198   -12.927684979
 H       -6.397403468    14.324562185     0.112671292
 H       -7.442413578    13.740752296    -1.172919181
 H       -5.918351026    14.513698741    -1.585812126
 H       -5.471180064    10.774581391    -2.287050305
 H       -5.361390144    12.382694740    -3.025256686
 H       -6.921399224    11.739480671    -2.527703331
 H       -5.797884724    12.229822877     2.248209640
 H       -4.698360660    12.716326542     3.529013601
 H       -4.365399855    11.249887313     2.619210457
 H       -1.811695859    13.883892878     1.484806114
 H       -1.966489383    12.272511727     2.207975228
 H       -2.479832081    13.697640108     3.101005977
 H       -2.524906295    -1.693989971    -0.740142913
 H       -2.418325608    -1.677908379    -2.493375011
 H       -2.686468530    -0.168143740    -1.632623974
 H        0.933223144    -0.157139897    -2.941747043
 H       -0.591294989     0.749331275    -2.989587074
 H       -0.482905604    -0.849446202    -3.718278823
 H       -0.468643899    -2.971843513     0.776039252
 H       -0.662774278    -2.843544587     2.517689927
 H        0.889761974    -2.454222376     1.791804627
 H       -0.674034703     0.874388529     2.868106010
 H        0.760110955    -0.149470851     3.058445804
 H       -0.792261336    -0.669832341     3.700741279

