187   

Si        0.000000000     0.000000000     0.000000000
 C        1.865019045     0.000000000     0.000000000
 C       -0.682730802     1.709615929     0.000000000
 C        0.104396410     2.801002780    -0.380831249
 C       -0.423367641     4.092187057    -0.377053089
 C       -1.748774736     4.320898045     0.001565096
 C       -2.537694533     3.225567730     0.378076759
 C       -2.013805281     1.935937043     0.375612354
 C       -2.344829570     5.652507948     0.021343468
 C       -1.703871540     6.785066532    -0.314009918
 C       -2.304306368     8.114898303    -0.292670005
 C       -3.630934141     8.335151297     0.087358571
 C       -4.166420060     9.623039802     0.093909420
 C       -3.388767667    10.716851690    -0.296123889
 C       -2.058587247    10.499130258    -0.681548421
 C       -1.523825809     9.214235321    -0.674992549
Si       -4.059960744    12.428641172    -0.300431204
 C       -3.400784300    13.384572073    -1.713359128
 C       -3.052298369    12.830814564    -2.882632576
 C       -2.523283096    13.576887678    -4.024976238
 C       -2.196733015    12.874017956    -5.194001817
 C       -1.692568991    13.530042889    -6.304612353
 C       -1.441640989    14.916938470    -6.256824634
 C       -1.771435564    15.623801572    -5.089043048
 C       -2.334548095    14.960936931    -4.004692399
 N       -0.926497104    15.547913271    -7.413901172
 C        0.255394550    14.907759192    -8.027759641
 C       -0.802280017    17.014800327    -7.351289817
 C        1.541586175    14.974335547    -7.181669384
 C        1.800619615    13.665658570    -6.406858025
 N        2.590913789    13.829921540    -5.165055641
 C        1.832117356    14.503960372    -4.151978556
 C        0.925688157    13.711751960    -3.428145888
 C        0.153392413    14.285944265    -2.431096569
 C        0.287374140    15.645738951    -2.110546761
 C        1.205408161    16.419749818    -2.823004674
 C        1.978054091    15.858581686    -3.835504548
 C        3.929664175    14.396202237    -5.407096107
 C       -0.554593919    16.200917228    -1.047496178
 C       -0.514320898    17.480636069    -0.656605989
Si       -1.532634254    18.237651049     0.658027128
 C       -2.298604198    19.772450670    -0.005518690
 C       -2.571846496    19.868306966    -1.375005559
 C       -3.151909371    21.021537497    -1.900229095
 C       -3.484928888    22.095496398    -1.069534675
 C       -3.217034675    21.992814950     0.301857760
 C       -2.630675515    20.844748025     0.829658838
 C       -4.093380049    23.321232476    -1.576296972
 C       -4.399977801    23.545498822    -2.865317478
 C       -5.008316625    24.769931880    -3.374815437
 C       -5.336401129    25.848823101    -2.549820957
 C       -5.917088607    27.001044075    -3.079665843
 C       -6.189479617    27.095886343    -4.447962356
 C       -5.862522267    26.014460797    -5.277395097
 C       -5.277513137    24.868212094    -4.746627757
Si       -6.955467274    28.609439881    -5.162830421
 C       -7.637759747    29.726918001    -3.834151707
 C       -5.650278955    29.571231382    -6.160184754
 C       -8.346159917    28.071417699    -6.346098263
 C       -2.951065362    17.071099706     1.158617277
 C       -0.443095691    18.592637820     2.170064567
 C       -5.957610575    12.430779180    -0.376615781
 C       -3.505110249    13.291166489     1.303433486
 C       -0.619296175    -0.917196509    -1.548603077
 C       -0.650121660    -0.912689067     1.539259980
 H        1.148159538     2.684647260    -0.685385094
 H        0.210881878     4.925304048    -0.674455057
 H       -3.572837903     3.381690544     0.675988160
 H       -2.677335306     1.121071524     0.678471819
 H       -3.391518022     5.679358536     0.339092408
 H       -0.657463228     6.759940658    -0.631660805
 H       -4.259551329     7.498555813     0.386742790
 H       -5.207842957     9.732652575     0.408261005
 H       -1.403847480    11.319286488    -0.997041810
 H       -0.487809440     9.063949482    -0.973698610
 H       -3.331541204    14.470677653    -1.548344806
 H       -3.126959593    11.750001762    -3.072510839
 H       -2.353579448    11.795518161    -5.237335369
 H       -1.493132471    12.974261221    -7.216917835
 H       -1.586430773    16.690805685    -5.010655122
 H       -2.597267347    15.536985897    -3.114731149
 H       -0.486684395    17.397238064    -8.336602325
 H       -0.087483438    17.375064221    -6.593958319
 H       -1.795530867    17.451062455    -7.139450466
 H        4.497425803    13.684872772    -6.031993223
 H        4.463259724    14.487098403    -4.444847864
 H        3.935967964    15.376891523    -5.904467890
 H        0.831047228    12.652824043    -3.665940697
 H       -0.564834075    13.666743883    -1.888608488
 H        1.326327078    17.478279029    -2.591557316
 H        2.685578876    16.478456729    -4.377396342
 H       -1.234120128    15.461317337    -0.601827924
 H        0.185518446    18.195067717    -1.122855673
 H       -2.336902270    19.056852481    -2.072930051
 H       -3.348148391    21.077178848    -2.969451565
 H       -3.468398149    22.818152188     0.965365043
 H       -2.442094747    20.821491854     1.906194623
 H       -4.294905721    24.080878174    -0.815413253
 H       -4.198842696    22.784731111    -3.625416918
 H       -5.138876298    25.798535619    -1.480596653
 H       -6.149787021    27.812705301    -2.384712394
 H       -6.052979145    26.031508311    -6.354284247
 H       -5.029613924    24.039313905    -5.406854167
 H       -0.000658692    13.852552134    -8.270531663
 H        0.424089059    15.403484132    -9.011619790
 H        2.405864453    15.202542643    -7.829571688
 H        1.474680584    15.819896244    -6.468575703
 H        0.832340921    13.188638578    -6.123571862
 H        2.336330409    12.934604623    -7.049863516
 H        2.262576177    -1.029346594     0.052716291
 H        2.260483968     0.553718932     0.871087402
 H        2.275759582     0.468678230    -0.911294094
 H       -8.135091685    30.610003954    -4.273670424
 H       -6.844141983    30.093668157    -3.159860362
 H       -8.386850483    29.197445320    -3.217707355
 H       -6.168100487    30.508964077    -6.514672793
 C       -4.441897218    29.987728563    -5.301519262
 C       -5.137096979    28.813790222    -7.397870617
 H       -7.850390750    27.438113854    -7.138301954
 C       -9.409723670    27.204013319    -5.648677680
 C       -9.042675452    29.248504023    -7.051498755
 H       -2.477374863    16.061148107     1.335973529
 C       -3.667571247    17.492551637     2.452615171
 C       -3.996667953    16.930557927     0.037010272
 H       -1.123202759    19.049048414     2.946531628
 C        0.177134421    17.318047027     2.770608192
 C        0.677282703    19.603359447     1.867338255
 H       -6.308171362    11.836424627     0.516169139
 C       -6.567458346    13.840763920    -0.275066838
 C       -6.491985592    11.746262779    -1.647244556
 H       -3.868266639    14.357754247     1.223269769
 C       -4.124627447    12.673516008     2.568317210
 C       -1.974016051    13.315191677     1.459558637
 H       -0.132708607    -1.934653641    -1.517380810
 C       -2.145151949    -1.118300856    -1.571793379
 C       -0.193320898    -0.223979644    -2.855742186
 H       -1.774745488    -0.922805969     1.441946076
 C       -0.173678283    -2.373201512     1.633365923
 C       -0.297046477    -0.184681560     2.848889496
 H       -4.713688126    30.601991598    -4.433445533
 H       -3.745569515    30.592857447    -5.899708456
 H       -3.863789372    29.128135560    -4.932835409
 H       -5.932193144    28.537333682    -8.101737764
 H       -4.582584685    27.900781028    -7.138916058
 H       -4.436592993    29.447357259    -7.961425905
 H       -8.991409810    26.309312822    -5.165546682
 H      -10.141847649    26.841197023    -6.384149627
 H       -9.981386173    27.753338053    -4.888971994
 H       -8.354366432    29.878021176    -7.630150373
 H       -9.589413047    29.900766540    -6.357650044
 H       -9.786963952    28.869577970    -7.767036694
 H       -3.003970644    17.533358439     3.325618915
 H       -4.453867381    16.764344819     2.700646026
 H       -4.169398945    18.466354683     2.367900689
 H       -3.574496211    16.580028394    -0.915019701
 H       -4.530789359    17.870104267    -0.168034102
 H       -4.769230576    16.203032699     0.324890621
 H       -0.568646535    16.575978665     3.084108820
 H        0.757329996    17.569673487     3.669935165
 H        0.876554387    16.818684508     2.084552679
 H        0.308417288    20.557173738     1.465031019
 H        1.426061638    19.213915416     1.163627101
 H        1.221822974    19.850106855     2.790064258
 H       -6.307399122    14.361264428     0.655588166
 H       -7.665239939    13.776709283    -0.291824476
 H       -6.287353166    14.489524018    -1.117093813
 H       -6.144446370    10.710866135    -1.766733970
 H       -6.229783022    12.289533597    -2.567083076
 H       -7.589766754    11.700241880    -1.619246240
 H       -5.221618630    12.701393170     2.576231016
 H       -3.797949256    13.230704576     3.458438956
 H       -3.817345626    11.630801432     2.731731723
 H       -1.450136882    13.765947977     0.605080658
 H       -1.547276498    12.313737017     1.616003875
 H       -1.693687678    13.907365458     2.342571771
 H       -2.523109415    -1.687577805    -0.713200968
 H       -2.435264972    -1.686917911    -2.467346854
 H       -2.699944468    -0.170471451    -1.618776148
 H        0.893623731    -0.108893438    -2.955154394
 H       -0.646323480     0.770395463    -2.978548847
 H       -0.519163923    -0.818969714    -3.720995111
 H       -0.447823498    -2.977555591     0.759077993
 H       -0.636352491    -2.863353480     2.502384085
 H        0.911774829    -2.461348643     1.773944646
 H       -0.655403707     0.854326231     2.878239550
 H        0.781750711    -0.167730375     3.053293833
 H       -0.765455198    -0.695265894     3.702358258

