187   

Si        0.000000000     0.000000000     0.000000000
 C        1.865111710     0.000000000     0.000000000
 C       -0.682721501     1.709608216     0.000000000
 C        0.132679095     2.817731879     0.249140066
 C       -0.401313266     4.106584144     0.245318135
 C       -1.760693031     4.315960513     0.000277798
 C       -2.577327896     3.203903993    -0.246048485
 C       -2.046893171     1.917141165    -0.246929052
 C       -2.364921275     5.644009774    -0.014030733
 C       -1.700122706     6.791873571     0.201584284
 C       -2.309593091     8.117608823     0.186091687
 C       -1.501454560     9.236149739     0.426989977
 C       -2.041223784    10.520356518     0.421702673
 C       -3.402533181    10.716721683     0.161974060
 C       -4.211863910     9.600315955    -0.079732986
 C       -3.671040731     8.316027716    -0.061937489
Si       -4.148653153    12.398543408     0.147107031
 C       -5.511622251    12.521924977    -1.065328696
 C       -5.573353039    11.809120768    -2.198227182
 C       -6.660358202    11.902229437    -3.173118049
 C       -6.607636361    11.099989099    -4.322861464
 C       -7.609128711    11.148286876    -5.277309367
 C       -8.736345105    11.979184093    -5.088526296
 C       -8.790861444    12.784119875    -3.934636593
 C       -7.755140336    12.754685708    -3.009337892
 N       -9.737537596    12.010994817    -6.069481370
 C      -10.079378918    10.743358814    -6.735726200
 C      -10.874423759    12.914357566    -5.853065057
 C      -10.356647094     9.552391473    -5.799070817
 C      -11.725652757     9.594168149    -5.098340839
 N      -12.910111839     9.395064014    -5.958265924
 C      -13.379541083    10.566634919    -6.606790573
 C      -13.862542535    11.606038864    -5.786500567
 C      -14.335820062    12.777576178    -6.353994926
 C      -14.377354064    12.938740567    -7.747514063
 C      -13.925670868    11.892829419    -8.555681853
 C      -13.443151307    10.712689556    -8.000074429
 C      -12.837060076     8.184305376    -6.790322494
 C      -14.887016578    14.197659722    -8.296819210
 C      -14.971881404    14.460209914    -9.607029665
Si      -15.596354702    16.006045741   -10.356577216
 C      -14.381493695    16.605951916   -11.599944251
 C      -13.021868748    16.307054663   -11.444038761
 C      -12.091237447    16.754968411   -12.377946364
 C      -12.492885989    17.520252544   -13.480765904
 C      -13.849611934    17.822312189   -13.628504725
 C      -14.785364201    17.371873906   -12.698097843
 C      -11.480005362    17.966158671   -14.431871013
 C      -11.731076292    18.699242317   -15.529738702
 C      -10.718095104    19.145052856   -16.480717144
 C       -9.361648046    18.843723409   -16.334064869
 C       -8.426750238    19.290612578   -17.267769178
 C       -8.830593642    20.043348827   -18.374847316
 C      -10.190932072    20.345376654   -18.525118066
 C      -11.120856586    19.903153187   -17.588423968
Si       -7.609647017    20.640862347   -19.616418504
 C       -5.952373835    19.812387198   -19.402841726
 C       -8.304463799    20.285672389   -21.352709102
 C       -7.381461223    22.521331234   -19.427789157
 C      -17.263478966    15.641485280   -11.196674147
 C      -15.855903090    17.359248260    -9.046411029
 C       -4.846202058    12.773753917     1.876706321
 C       -2.829378984    13.702568860    -0.275948708
 C       -0.658562858    -0.900933732    -1.542398132
 C       -0.606934966    -0.927453005     1.547831821
 H        1.202945465     2.717144301     0.449153484
 H        0.255517675     4.953125206     0.437041170
 H       -3.638930882     3.344692748    -0.439962920
 H       -2.731756517     1.088702280    -0.449008307
 H       -3.439529320     5.653611324    -0.219337980
 H       -0.625915037     6.782707276     0.407412776
 H       -0.439411203     9.103696531     0.623485776
 H       -1.362796583    11.353930466     0.622257211
 H       -5.283526099     9.694527574    -0.286638975
 H       -4.321922649     7.463862214    -0.248371111
 H       -6.292908160    13.251705228    -0.806116849
 H       -4.800669372    11.080191166    -2.482956695
 H       -5.756517200    10.434922685    -4.476732714
 H       -7.522592848    10.547049616    -6.177513248
 H       -9.638260278    13.436819764    -3.753539203
 H       -7.813644699    13.399377441    -2.131250189
 H      -11.542029104    12.898349143    -6.734952341
 H      -10.500931477    13.950399065    -5.755025306
 H      -11.479484408    12.665239114    -4.966472695
 H      -12.607955354     7.318994165    -6.144430238
 H      -12.087562269     8.226362389    -7.595895942
 H      -13.829099315     7.999985100    -7.241227106
 H      -13.870891164    11.475229214    -4.706020968
 H      -14.698081169    13.576979768    -5.707005823
 H      -13.951474334    11.993132965    -9.642052948
 H      -13.104250753     9.916455177    -8.656254465
 H      -15.194529248    14.914200781    -7.524506459
 H      -14.660247938    13.713085198   -10.357170983
 H      -12.650513162    15.715555659   -10.600455978
 H      -11.039268718    16.508670836   -12.244776801
 H      -14.187845582    18.415038957   -14.476357450
 H      -15.832134949    17.638765207   -12.866638283
 H      -10.458661866    17.656702949   -14.190682863
 H      -12.752228389    19.008670775   -15.770742071
 H       -9.021777093    18.255146258   -15.483743986
 H       -7.379622988    19.024718058   -17.098182979
 H      -10.565027319    20.928756930   -19.371237711
 H      -12.172610645    20.149002162   -17.721908027
 H      -10.954179304    10.914727128    -7.404183393
 H       -9.230087466    10.488961392    -7.414795012
 H      -10.252775963     8.612252875    -6.372213699
 H       -9.566534035     9.502770847    -5.019675419
 H      -11.762837917     8.791285332    -4.322887768
 H      -11.834466600    10.555371850    -4.548100315
 H        2.263532711    -1.029809071    -0.032845164
 H        2.273769702     0.485795777     0.903501848
 H        2.261943635     0.536977123    -0.880692692
 H       -5.238886550    20.141079850   -20.179549746
 H       -6.044949159    18.713891572   -19.481989643
 H       -5.503498962    20.043094264   -18.420659956
 H       -9.275390686    20.857624481   -21.420018074
 C       -7.390727913    20.773347290   -22.491112484
 C       -8.620885676    18.794495366   -21.567072328
 H       -6.573777100    22.805157558   -20.162907985
 C       -8.642872724    23.334640476   -19.768469699
 C       -6.904684988    22.918454540   -18.018505626
 H      -17.615613617    16.623461256   -11.627256324
 C      -17.135063168    14.633691521   -12.352703497
 C      -18.336145179    15.142021443   -10.212860128
 H      -16.522596732    16.905138645    -8.257348090
 C      -14.537577982    17.784912025    -8.374089125
 C      -16.556150006    18.612960160    -9.599633724
 H       -5.277868505    13.814455925     1.819953352
 C       -5.978207883    11.807688915     2.270251732
 C       -3.771957472    12.760548385     2.978145390
 H       -2.039093381    13.620072423     0.524792313
 C       -2.162624976    13.437771240    -1.637721324
 C       -3.373809168    15.142193950    -0.259115879
 H       -1.782869312    -0.903943246    -1.441577215
 C       -0.305598989    -0.167227869    -2.848924164
 C       -0.190529116    -2.363351677    -1.646129874
 H       -0.102003917    -1.935997987     1.514565536
 C       -0.191185736    -0.228000627     2.855025941
 C       -2.128449627    -1.157880371     1.575294583
 H       -7.174388395    21.848521410   -22.444889022
 H       -7.876022831    20.599338988   -23.462525325
 H       -6.431418945    20.240301096   -22.528192402
 H       -9.318792132    18.387794599   -20.821183016
 H       -7.724694417    18.160042570   -21.561734655
 H       -9.098287683    18.647108975   -22.546268226
 H       -9.003233563    23.172021658   -20.792084108
 H       -8.428869301    24.410425045   -19.686763814
 H       -9.476999870    23.136683896   -19.080720287
 H       -5.961826073    22.439171363   -17.725136499
 H       -7.647344518    22.696424531   -17.238593711
 H       -6.725342402    24.002212208   -17.972765334
 H      -16.409914966    14.939216034   -13.120153089
 H      -18.100207783    14.527094603   -12.868250867
 H      -16.854927126    13.626862451   -12.013683763
 H      -18.546550673    15.850316217    -9.401117576
 H      -18.080079464    14.176303735    -9.753916819
 H      -19.288428851    14.988085726   -10.740358492
 H      -13.988366485    16.952007723    -7.914579227
 H      -14.740354052    18.504035427    -7.567983490
 H      -13.849515633    18.288606241    -9.068807952
 H      -17.556397583    18.410747475   -10.003476271
 H      -15.973410956    19.119243919   -10.382378922
 H      -16.694281984    19.351714929    -8.796650745
 H       -6.813660941    11.801020428     1.556951657
 H       -6.403453024    12.100106523     3.240693117
 H       -5.632824901    10.770278100     2.386708690
 H       -2.971634593    13.493557085     2.814984198
 H       -3.302174117    11.774710988     3.105803310
 H       -4.224565605    13.011360073     3.948372212
 H       -1.696775929    12.445373201    -1.711282881
 H       -1.361178964    14.168496999    -1.814997737
 H       -2.861868127    13.536235243    -2.481122328
 H       -3.799170689    15.436482959     0.708651980
 H       -4.137683414    15.318381870    -1.029616497
 H       -2.561004794    15.853435951    -0.465440936
 H       -0.660142898     0.873288493    -2.871202246
 H       -0.778521922    -0.670752048    -3.704012126
 H        0.772641973    -0.153643677    -3.056065261
 H       -0.470333598    -2.972199007    -0.776712036
 H        0.894754912    -2.456737687    -1.784714218
 H       -0.653796654    -2.844519035    -2.519780921
 H        0.893941135    -0.096013778     2.953917492
 H       -0.507591210    -0.827892190     3.720373166
 H       -0.658835710     0.759575939     2.978010703
 H       -2.500457522    -1.719533227     0.709199153
 H       -2.700197458    -0.221600240     1.642401529
 H       -2.402568416    -1.747126957     2.462597427

