187   

Si        0.000000000     0.000000000     0.000000000
 C        1.865191869     0.000000000     0.000000000
 C       -0.667954287     1.717072398     0.000000000
 C        0.163347231     2.827107860     0.177252842
 C       -0.363707710     4.119750681     0.173855871
 C       -1.733918727     4.331960221     0.005853196
 C       -2.566879077     3.217648240    -0.169092172
 C       -2.042864734     1.928582998    -0.175584191
 C       -2.336562120     5.660529172    -0.005587265
 C       -1.666116167     6.816120426     0.140289777
 C       -2.286859692     8.137719401     0.126135937
 C       -3.662361049     8.319128831    -0.044113984
 C       -4.219492164     9.597643451    -0.052148397
 C       -3.405760766    10.727026062     0.078067813
 C       -2.025334228    10.549302851     0.243821554
 C       -1.475816224     9.270114113     0.277973649
Si       -4.107807824    12.431244800     0.071626333
 C       -2.857936821    13.517306861    -0.700868708
 C       -2.324412971    14.682901390    -0.312942098
 C       -1.315031384    15.392210688    -1.108330367
 C       -0.785161146    16.610706895    -0.660816490
 C        0.169810051    17.297530461    -1.397228434
 C        0.651835826    16.776564994    -2.617438918
 C        0.113412470    15.554675962    -3.071767736
 C       -0.858618113    14.895530938    -2.333641144
 N        1.614538028    17.456560056    -3.371927941
 C        2.570235921    18.366650707    -2.733491724
 C        2.150774433    16.790537774    -4.567493561
 C        3.815664316    17.651865816    -2.178685068
 C        4.869708473    18.638965648    -1.642886506
 N        4.416228297    19.560097800    -0.573413164
 C        3.479745308    18.987910412     0.321834535
 C        3.829757601    17.769028454     0.939927519
 C        2.954064420    17.164407088     1.823326603
 C        1.736074930    17.775107446     2.160734169
 C        1.407734205    18.995886302     1.570924465
 C        2.267241481    19.605184179     0.662301589
 C        4.105666438    20.910972232    -1.070231368
 C        0.854206814    17.085240409     3.100084523
 C       -0.332763608    17.553947876     3.506531625
Si       -1.411236175    16.665626595     4.682718956
 C       -1.194958103    14.841770912     4.553348722
 C       -0.605766249    14.256644792     3.425206742
 C       -0.449126549    12.874779935     3.342293278
 C       -0.892009032    12.043059381     4.377863808
 C       -1.487279928    12.628986801     5.499810408
 C       -1.638204822    14.011462227     5.588772418
 C       -0.710655718    10.600882312     4.255206403
 C       -1.091432112     9.715931936     5.191352329
 C       -0.925181470     8.270968422     5.100221231
 C       -0.337312274     7.640619828     4.001192309
 C       -0.203317303     6.252375789     3.966525194
 C       -0.654288210     5.468246689     5.033187440
 C       -1.247552892     6.099235099     6.134355169
 C       -1.384826150     7.483109162     6.164248287
Si       -0.489029958     3.636480876     5.011258639
 C        0.682181580     3.093446404     3.666215431
 C        0.191356383     2.965038298     6.658146805
 C       -2.239082822     2.947830277     4.720807478
 C       -1.025673958    17.231216063     6.455229734
 C       -3.216802002    17.103311288     4.268714741
 C       -5.614994847    12.461597516    -1.105120798
 C       -4.753931546    12.955404655     1.773228959
 C       -0.661648475    -0.856466254    -1.569039102
 C       -0.624191626    -1.004777249     1.491291513
 H        1.243389659     2.723964256     0.315058795
 H        0.306816513     4.966789584     0.307591015
 H       -3.637554155     3.359736143    -0.304517271
 H       -2.742526727     1.100930711    -0.323337064
 H       -3.422099011     5.665047821    -0.144438226
 H       -0.582183102     6.818561055     0.283716673
 H       -4.316443760     7.457324407    -0.161013196
 H       -5.303616738     9.674252585    -0.168246115
 H       -1.343100074    11.398977126     0.355916934
 H       -0.403583314     9.151629674     0.418475943
 H       -2.540432051    13.067821619    -1.664096954
 H       -2.589814293    15.182742835     0.624601121
 H       -1.119232874    17.028115725     0.291254579
 H        0.558213278    18.237298800    -1.011505676
 H        0.448113988    15.110461071    -4.002467027
 H       -1.257823307    13.956419878    -2.722909056
 H        2.867649763    17.451077448    -5.082980431
 H        1.325716753    16.597881354    -5.278737824
 H        2.656584961    15.836746062    -4.341871412
 H        4.984156794    21.304136612    -1.611069404
 H        3.938091468    21.584849078    -0.210415048
 H        3.231965308    20.962010193    -1.737737444
 H        4.789510058    17.308489808     0.719468241
 H        3.222755128    16.207832637     2.273833390
 H        0.465528678    19.486374993     1.818457969
 H        1.978011849    20.551765366     0.217431040
 H        1.274967403    16.133810754     3.459314581
 H       -0.721234653    18.519938800     3.152363651
 H       -0.271146575    14.849836835     2.566222931
 H        0.011750021    12.440741829     2.456204266
 H       -1.840953093    12.005342515     6.318814526
 H       -2.108797148    14.408042460     6.492392326
 H       -0.240381539    10.268665699     3.326070480
 H       -1.569263587    10.058810383     6.114910217
 H        0.014097636     8.231017050     3.157254316
 H        0.257844772     5.811665008     3.078280342
 H       -1.625576402     5.535722334     6.992027884
 H       -1.853085966     7.955730054     7.025150844
 H        2.869112634    19.128606943    -3.490582755
 H        2.056569857    18.927516678    -1.918215491
 H        3.503647845    16.942629262    -1.385041510
 H        4.279633577    17.024023283    -2.961791714
 H        5.724675701    18.060131583    -1.216285146
 H        5.291229757    19.231926945    -2.482668112
 H        2.263360418    -1.030364318    -0.001599635
 H        2.274191413     0.513505345     0.888060354
 H        2.261321386     0.509043172    -0.897261828
 H        0.881447169     2.008331809     3.714441327
 H        1.652458142     3.614325190     3.740219200
 H        0.255816907     3.304165046     2.666045428
 H        0.432934650     1.880951923     6.453445141
 C        1.493059666     3.671291231     7.081356335
 C       -0.795330647     3.004669241     7.838799063
 H       -2.876230455     3.393078917     5.540155896
 C       -2.825302194     3.395022994     3.370445344
 C       -2.337253462     1.416457217     4.823653831
 H       -1.788140441    16.728196674     7.117572811
 C        0.373498374    16.786014486     6.916760681
 C       -1.157631401    18.752006158     6.649842936
 H       -3.304494865    18.218348267     4.413500408
 C       -3.581528249    16.779572931     2.808779693
 C       -4.235455832    16.419472516     5.197224466
 H       -6.376544517    11.765676747    -0.650151850
 C       -6.251630456    13.857637917    -1.221245322
 C       -5.284405330    11.945467562    -2.516559494
 H       -5.056501298    14.038602310     1.665654975
 C       -5.992203026    12.158818008     2.227685215
 C       -3.690237681    12.862390365     2.871983948
 H       -1.780665017    -0.919151348    -1.435557009
 C       -0.383882578    -0.044224224    -2.846787058
 C       -0.128385560    -2.286919495    -1.762625131
 H       -0.416618948    -2.084048023     1.229917508
 C        0.127425155    -0.689306023     2.795691909
 C       -2.136520896    -0.863157635     1.738598492
 H        2.290461009     3.601089837     6.329991927
 H        1.891497898     3.212946285     7.997267230
 H        1.346478916     4.737035930     7.308078227
 H       -1.762795387     2.535929597     7.618592500
 H       -0.990741632     4.023973048     8.197413828
 H       -0.376085098     2.456326591     8.694739209
 H       -2.829868773     4.486733383     3.236301063
 H       -3.871512506     3.071312944     3.286371385
 H       -2.297319809     2.962801699     2.506743438
 H       -1.972893898     1.016125125     5.777602552
 H       -1.795823097     0.901725415     4.016720582
 H       -3.387074535     1.102106607     4.737069743
 H        0.520844780    15.697661611     6.870514224
 H        0.534888088    17.073425692     7.965314539
 H        1.184033636    17.254641628     6.340375892
 H       -2.157215343    19.137279115     6.412249569
 H       -0.428047503    19.323031052     6.058549383
 H       -0.970895228    19.013553290     7.701596329
 H       -2.923807074    17.264994871     2.075061562
 H       -4.599931253    17.128887516     2.587724474
 H       -3.577903604    15.697850648     2.602324786
 H       -4.097509262    16.668153961     6.256822792
 H       -4.228374914    15.323395300     5.105888001
 H       -5.254908046    16.740445451     4.938599939
 H       -6.603473906    14.256789228    -0.261213778
 H       -7.131611045    13.817137734    -1.878307806
 H       -5.572233729    14.601309653    -1.662376772
 H       -4.841147174    10.940028742    -2.521184449
 H       -4.604415474    12.610858039    -3.065859902
 H       -6.202127810    11.879372318    -3.117690999
 H       -6.853421944    12.267280724     1.557413559
 H       -6.324368066    12.516615401     3.213226950
 H       -5.788663516    11.085227280     2.347380943
 H       -2.795183064    13.463058287     2.655059366
 H       -3.355160792    11.832779424     3.067696162
 H       -4.083570190    13.239209176     3.826704169
 H       -0.786721312     0.978142688    -2.807143633
 H       -0.859077533    -0.527521436    -3.712262486
 H        0.685602144     0.031505494    -3.083563678
 H       -0.357875319    -2.956125517    -0.923772446
 H        0.956431787    -2.320166480    -1.929937431
 H       -0.589943977    -2.741725990    -2.651406499
 H        1.204449672    -0.891691523     2.734676706
 H       -0.255988421    -1.315250732     3.614236115
 H        0.001681231     0.354656201     3.118669407
 H       -2.749161264    -1.166220102     0.880291808
 H       -2.429972070     0.160679593     2.015892345
 H       -2.443355839    -1.507850388     2.574936974

