187   

Si        0.000000000     0.000000000     0.000000000
 C        1.865079290     0.000000000     0.000000000
 C       -0.678999475     1.709995627     0.000000000
 C        0.099631109     2.798114850    -0.406043215
 C       -0.428069614     4.089357715    -0.401019823
 C       -1.741509983     4.321276239     0.014218366
 C       -2.522514189     3.228329158     0.414298820
 C       -2.002931922     1.937712190     0.399225259
 C       -2.338436698     5.651576719     0.037503105
 C       -1.708427398     6.780173596    -0.329120210
 C       -2.314939116     8.106281780    -0.302010440
 C       -1.549448720     9.205289083    -0.710700089
 C       -2.086940048    10.490038542    -0.701470983
 C       -3.389992549    10.707727208    -0.238978092
 C       -4.151397470     9.613124172     0.186021552
 C       -3.619544026     8.325691551     0.149063129
Si       -4.116144662    12.394994225    -0.219151445
 C       -5.392809762    12.580155240     1.076046332
 C       -5.408432926    11.915724606     2.239659668
 C       -6.446586642    12.085323071     3.260122403
 C       -6.365830073    11.337470846     4.445508034
 C       -7.327451618    11.469030667     5.434704607
 C       -8.416183382    12.341849818     5.250771285
 C       -8.502010718    13.090177528     4.070381256
 C       -7.517380014    12.966023628     3.095393550
 N       -9.370520863    12.430931634     6.307194301
 C      -10.141326378    11.189280325     6.507912361
 C      -10.219852231    13.634533525     6.292742299
 C      -11.103162302    10.848632737     5.352893717
 C      -11.622100329     9.402125276     5.452033036
 N      -10.945614422     8.443961955     4.556575414
 C       -9.589917139     8.163495587     4.823852035
 C       -9.159412506     8.025087614     6.160292259
 C       -7.831611486     7.749500922     6.444680537
 C       -6.911340420     7.492011069     5.419807414
 C       -7.348927374     7.586250323     4.095660137
 C       -8.661272032     7.925996620     3.793993732
 C      -11.307834762     8.647605465     3.142719171
 C       -5.519122620     7.205906850     5.770414940
 C       -4.567393977     6.948026291     4.865098146
Si       -2.809594464     6.581133516     5.203733414
 C       -1.849814842     7.702137398     4.106164834
 C       -2.306951137     9.015808366     3.933759763
 C       -1.611820101     9.896982632     3.112768507
 C       -0.441355363     9.491511623     2.457339155
 C        0.011963882     8.182159377     2.633029714
 C       -0.688209480     7.291864762     3.447389487
 C        0.245819753    10.457195529     1.609344378
 C        1.367814278    10.220842431     0.909520969
 C        2.027054586    11.215822458     0.070108140
 C        1.537430587    12.516633927    -0.076824045
 C        2.195777667    13.439582519    -0.888404439
 C        3.354799331    13.076670901    -1.581313320
 C        3.845629872    11.771651021    -1.439338696
 C        3.189791441    10.854472507    -0.622730845
Si        4.235710633    14.282382535    -2.656430904
 C        3.215664158    15.818698493    -2.940668585
 C        5.880693420    14.785468351    -1.841933244
 C        4.613297486    13.427222913    -4.314608648
 C       -2.352383779     6.946997407     7.012456737
 C       -2.437612514     4.756301768     4.841174075
 C       -2.756311403    13.696723281     0.067171958
 C       -4.918990622    12.712723037    -1.913936870
 C       -0.626692558    -0.926128008    -1.539214803
 C       -0.651039928    -0.895429881     1.550233607
 H        1.135386678     2.678187377    -0.734354448
 H        0.197908982     4.919817600    -0.722491037
 H       -3.552285993     3.386820193     0.730934332
 H       -2.662448175     1.123911946     0.713310881
 H       -3.375326656     5.682554274     0.385897564
 H       -0.671239010     6.756120595    -0.674994097
 H       -0.523584384     9.058829109    -1.046137219
 H       -1.446234344    11.304845751    -1.050924533
 H       -5.175577048     9.725684856     0.557575712
 H       -4.228446873     7.489463471     0.487642741
 H       -6.173683267    13.316904350     0.831855987
 H       -4.641204909    11.178504326     2.517764025
 H       -5.538173306    10.641410270     4.594191032
 H       -7.247973569    10.895387446     6.356994939
 H       -9.333589040    13.767124664     3.902308214
 H       -7.599481968    13.562692296     2.186672373
 H      -10.766680777    13.689335136     7.250093602
 H      -10.951594420    13.670623816     5.472017377
 H       -9.577059824    14.530683429     6.233756389
 H      -12.388813007     8.847928656     3.058172916
 H      -11.110548722     7.714838232     2.583333659
 H      -10.763812304     9.476014203     2.659574445
 H       -9.867996761     8.138013518     6.976234897
 H       -7.510075022     7.698879883     7.485265642
 H       -6.650218120     7.405774220     3.276120851
 H       -8.948989545     8.018462426     2.751519143
 H       -5.329142108     7.219955052     6.850230080
 H       -4.802024144     6.933510958     3.785755860
 H       -3.216219932     9.384548308     4.420654325
 H       -1.986997176    10.910602238     2.977924927
 H        0.914453467     7.843325314     2.128842006
 H       -0.295016627     6.275907402     3.539418949
 H       -0.232754540    11.443202949     1.567680752
 H        1.853767222     9.243162386     0.940995989
 H        0.632054437    12.824103454     0.445748230
 H        1.766687363    14.442650714    -0.961365074
 H        4.745883389    11.431749609    -1.958738072
 H        3.586813692     9.846261369    -0.524187032
 H       -9.408923880    10.361138749     6.655501406
 H      -10.702586021    11.287058821     7.462973202
 H      -11.951968795    11.554653866     5.349125673
 H      -10.585846643    11.004063605     4.385193211
 H      -11.548378906     9.024400320     6.496392051
 H      -12.709955841     9.372221292     5.210639101
 H        2.263256233    -1.029251018     0.047955316
 H        2.259544929     0.550193092     0.873630165
 H        2.275615683     0.473177722    -0.909011395
 H        3.731281252    16.517416532    -3.623476622
 H        3.019197583    16.359097222    -1.998130497
 H        2.240757219    15.568414516    -3.396642865
 H        6.330943315    15.564783948    -2.522681425
 C        5.680926403    15.421436203    -0.453972213
 C        6.887386215    13.628279285    -1.713468304
 H        5.273073620    12.546125813    -4.064052037
 C        3.344891333    12.885386311    -4.998581869
 C        5.376603091    14.320757491    -5.308170521
 H       -3.045454027     6.317455698     7.641723794
 C       -0.904957369     6.553017433     7.357806236
 C       -2.566696053     8.423468155     7.393490924
 H       -1.327437808     4.629217182     5.004118114
 C       -3.169430175     3.787152057     5.787462192
 C       -2.753409919     4.365267621     3.388890965
 H       -1.960295242    13.490109736    -0.706020135
 C       -3.245268686    15.142159874    -0.135440460
 C       -2.117160781    13.581854775     1.461930494
 H       -5.343525772    13.756510054    -1.871209338
 C       -3.911852349    12.652406629    -3.075622970
 C       -6.075096784    11.738097276    -2.201396265
 H       -0.152372198    -1.948920361    -1.496753800
 C       -2.154876370    -1.109396125    -1.562741024
 C       -0.190226415    -0.251600087    -2.852713418
 H       -1.773374548    -0.936140584     1.436051746
 C       -0.139971621    -2.340792859     1.683548845
 C       -0.337896741    -0.129893921     2.849143940
 H        5.036012555    16.309395859    -0.469026253
 H        6.647972609    15.751139324    -0.047717477
 H        5.262095544    14.718833159     0.280914809
 H        7.154471296    13.174383018    -2.676116073
 H        6.535067119    12.827690965    -1.047985527
 H        7.827574887    13.995983183    -1.276769518
 H        2.773440225    12.191353022    -4.365614206
 H        3.615597097    12.323067613    -5.903628937
 H        2.658603236    13.679214747    -5.321706560
 H        6.331508878    14.692043332    -4.914130495
 H        4.791509916    15.188608402    -5.640145469
 H        5.620085571    13.749462109    -6.215833881
 H       -0.696652629     5.485536661     7.210480728
 H       -0.700564482     6.761636432     8.417805025
 H       -0.158468211     7.121894233     6.785224574
 H       -3.592714101     8.777112420     7.222768701
 H       -1.888850851     9.103126386     6.856471263
 H       -2.363089554     8.569895185     8.463345815
 H       -2.923762178     3.941793587     6.845526948
 H       -2.886382937     2.750426971     5.554432772
 H       -4.262825514     3.836602638     5.688764040
 H       -2.241396636     4.994735940     2.644424453
 H       -3.827853968     4.388483688     3.163927799
 H       -2.415588615     3.336535214     3.192113374
 H       -3.633615651    15.334000071    -1.143610173
 H       -2.411393200    15.844458580     0.008957880
 H       -4.021609744    15.437538339     0.583306889
 H       -1.707440815    12.583426483     1.671428257
 H       -2.819423005    13.824861703     2.272962967
 H       -1.282211312    14.290345077     1.556319475
 H       -3.099187735    13.384996204    -2.986926775
 H       -4.419615012    12.870131058    -4.026059162
 H       -3.454814854    11.658866607    -3.194132947
 H       -6.868216914    11.765594237    -1.442015833
 H       -5.740303590    10.694537231    -2.293566130
 H       -6.553939524    11.991950509    -3.157536842
 H       -2.538827995    -1.675909974    -0.704987770
 H       -2.451731491    -1.673012473    -2.459250186
 H       -2.699035277    -0.155235978    -1.607792897
 H        0.898413518    -0.155128347    -2.953143342
 H       -0.627271517     0.748744940    -2.984515101
 H       -0.525958102    -0.849019007    -3.712515153
 H       -0.385004118    -2.970401341     0.818475040
 H       -0.603915864    -2.823904109     2.555797844
 H        0.945013704    -2.398392982     1.842459612
 H       -0.723120314     0.899985609     2.849753231
 H        0.736740530    -0.080279426     3.069157297
 H       -0.806141393    -0.634615483     3.706112405

