187   

Si        0.000000000     0.000000000     0.000000000
 C        1.865232222     0.000000000     0.000000000
 C       -0.686313471     1.707753917     0.000000000
 C        0.118378463     2.814190337    -0.288897464
 C       -0.417954648     4.102042393    -0.284557085
 C       -1.769234263     4.311785074     0.001500780
 C       -2.575374226     3.201418450     0.287050734
 C       -2.042673121     1.915652678     0.286161751
 C       -2.376551178     5.638119803     0.018378313
 C       -1.724989302     6.786365503    -0.232810604
 C       -2.344026241     8.107842243    -0.212846724
 C       -1.554493012     9.230431045    -0.492858882
 C       -2.105323708    10.510202976    -0.484512991
 C       -3.459108345    10.697395714    -0.183674062
 C       -4.250174471     9.576630740     0.097060903
 C       -3.698560731     8.297290819     0.077114262
Si       -4.228374174    12.368547926    -0.161014346
 C       -5.528356170    12.473126793     1.122810539
 C       -5.501727591    11.765160889     2.259972578
 C       -6.528752125    11.831694665     3.300749282
 C       -6.376347621    11.033601325     4.445583536
 C       -7.316200735    11.056008526     5.461449819
 C       -8.476607524    11.849933698     5.340319783
 C       -8.632477000    12.647163009     4.195037385
 C       -7.656596979    12.648335621     3.203432536
 N       -9.408354322    11.840260363     6.404659773
 C       -9.837353020    10.504955243     6.865971386
 C      -10.525111021    12.794237808     6.307938077
 C      -10.728776738     9.718564160     5.889095330
 C       -9.952794616     9.254546006     4.642013902
 N      -10.709465097     8.314948706     3.799149863
 C      -11.036965910     7.068027838     4.358544133
 C      -10.132492970     6.441847780     5.244362055
 C      -10.437147540     5.213419190     5.805640262
 C      -11.621281430     4.537769353     5.475534014
 C      -12.500729498     5.144408801     4.575535922
 C      -12.219012442     6.384629483     4.016351351
 C      -11.734599142     8.979643563     2.979674722
 C      -11.892271861     3.242011030     6.099223396
 C      -12.986518496     2.505629479     5.862816128
Si      -13.321756601     0.887217915     6.643839014
 C      -12.576870936     0.765493102     8.321654568
 C      -12.495811210     1.907302667     9.130031779
 C      -11.935197083     1.833023165    10.402176104
 C      -11.454414831     0.616193719    10.903902648
 C      -11.544633201    -0.522497193    10.098807633
 C      -12.101416576    -0.450614234     8.822282906
 C      -10.875350565     0.588569608    12.243004726
 C      -10.375930001    -0.507981197    12.838135141
 C       -9.796772900    -0.536147956    14.177171037
 C       -9.705642072     0.601174554    14.983684760
 C       -9.144060066     0.528488596    16.258408260
 C       -8.666265966    -0.687474724    16.756992397
 C       -8.756995308    -1.829848602    15.950169661
 C       -9.312879084    -1.753070063    14.676287382
Si       -7.922418714    -0.799970996    18.437201319
 C       -8.272355705     0.729426264    19.446277932
 C       -8.635251601    -2.337464435    19.304151548
 C       -6.037276706    -1.012806666    18.281628610
 C      -15.205848307     0.672068534     6.796542229
 C      -12.640050250    -0.488475175     5.519980141
 C       -2.914080853    13.701465676     0.173669214
 C       -5.024122612    12.703424950    -1.855523539
 C       -0.610749033    -0.924644048    -1.547893521
 C       -0.654102209    -0.905637602     1.541743666
 H        1.182027511     2.712196698    -0.520651216
 H        0.230092991     4.947103513    -0.509183262
 H       -3.630926084     3.343072277     0.512726449
 H       -2.720074187     1.088690659     0.517885663
 H       -3.444526376     5.646809239     0.258381886
 H       -0.658400079     6.781920760    -0.473388358
 H       -0.498236322     9.104892157    -0.722291396
 H       -1.441677012    11.347268006    -0.716606084
 H       -5.316056486     9.662532997     0.336782372
 H       -4.336110285     7.441881858     0.294664011
 H       -6.341274957    13.180968358     0.905660066
 H       -4.693063824    11.058493069     2.499185842
 H       -5.497464874    10.394282465     4.543959689
 H       -7.155425691    10.465497489     6.360397860
 H       -9.510124369    13.272354151     4.068019104
 H       -7.791842660    13.287713119     2.330306364
 H      -11.104115917    12.771336144     7.247388085
 H      -11.213742406    12.598947223     5.470979760
 H      -10.119982476    13.817257751     6.205951019
 H      -11.326410743     9.916617865     2.562313016
 H      -12.655607262     9.218271173     3.534821169
 H      -11.989036285     8.333712697     2.119373062
 H       -9.191169478     6.923983513     5.494241554
 H       -9.734500810     4.758002294     6.505073935
 H      -13.428611111     4.640926273     4.300484759
 H      -12.931842093     6.820338679     3.324489347
 H      -11.104066254     2.925948935     6.797807548
 H      -13.756004787     2.838712484     5.150434855
 H      -12.859602292     2.883527285     8.791839093
 H      -11.874111236     2.731639668    11.013068282
 H      -11.179412990    -1.480251543    10.464565460
 H      -12.144739338    -1.375073888     8.240136292
 H      -10.870171876     1.553005227    12.759313884
 H      -10.381301552    -1.472536658    12.322120422
 H      -10.074172360     1.558843523    14.620792022
 H       -9.099363239     1.452122180    16.842111449
 H       -8.400485386    -2.807350853    16.287204517
 H       -9.373076216    -2.650748270    14.063924247
 H       -8.931365146     9.908543206     7.119011823
 H      -10.379930852    10.646762612     7.830287617
 H      -11.145216849     8.834328149     6.413820374
 H      -11.602492606    10.322816263     5.588609324
 H       -9.664706313    10.128935223     4.012019706
 H       -8.988815245     8.777806570     4.933444993
 H        2.262654543    -1.029589158     0.047592438
 H        2.261503469     0.549303872     0.873347434
 H        2.274765582     0.472863868    -0.909744875
 H       -7.860537904     0.635768797    20.467041673
 H       -9.360127152     0.900061345    19.541947272
 H       -7.828148576     1.631386336    18.990116095
 H       -8.341939088    -3.218454005    18.662101244
 C       -8.061060902    -2.569677038    20.713051636
 C      -10.172179709    -2.307467254    19.387192907
 H       -5.642464742    -1.015835012    19.338647757
 C       -5.618390221    -2.334270041    17.612907509
 C       -5.372836307     0.153452003    17.527064076
 H      -15.614448814     0.745782464     5.747640699
 C      -15.613177574    -0.694702305     7.373785844
 C      -15.853005259     1.784808561     7.640708819
 H      -12.913912716    -1.463827269     6.016274027
 C      -13.260351593    -0.482932939     4.111328219
 C      -11.107418083    -0.429611434     5.390137795
 H       -2.160355606    13.613561318    -0.661441546
 C       -3.481179078    15.132189871     0.151761530
 C       -2.180080269    13.476420385     1.507850416
 H       -5.470254838    13.737586707    -1.792293952
 C       -4.009695046    12.689521317    -3.012197792
 C       -6.158170176    11.712109602    -2.172977381
 H       -0.112084623    -1.936257811    -1.514838610
 C       -2.133772451    -1.145148972    -1.574311943
 C       -0.190991997    -0.227522443    -2.855048866
 H       -1.778675780    -0.912443412     1.443124014
 C       -0.181478565    -2.366851444     1.642108190
 C       -0.301277745    -0.173114296     2.848986387
 H       -6.968165654    -2.670981048    20.726212123
 H       -8.461028019    -3.504793419    21.131525035
 H       -8.332104654    -1.776158536    21.422027604
 H      -10.657523681    -2.198401102    18.406687199
 H      -10.551850831    -1.506154262    20.034837310
 H      -10.545358334    -3.250723992    19.810916373
 H       -5.988716385    -3.224964389    18.135915571
 H       -4.521816403    -2.418727472    17.603733620
 H       -5.938367642    -2.401039245    16.563474098
 H       -5.553244981     1.132116181    17.990054446
 H       -5.690582927     0.218646734    16.476436293
 H       -4.281820307     0.018323292    17.510235317
 H      -15.267729381    -1.543302881     6.769715604
 H      -16.709138602    -0.774128007     7.415602908
 H      -15.256378630    -0.848730934     8.402326359
 H      -15.654279673     2.794853793     7.257172938
 H      -15.536006292     1.760939956     8.693337696
 H      -16.945740992     1.666449552     7.646798833
 H      -14.351336444    -0.600608572     4.114625898
 H      -12.863549972    -1.322964322     3.523181107
 H      -13.022271911     0.427614781     3.543509113
 H      -10.584011325    -0.485490294     6.354673794
 H      -10.757507213     0.478700290     4.877851863
 H      -10.745764127    -1.278705590     4.793594911
 H       -3.953022142    15.399763255    -0.802172910
 H       -2.670886041    15.859357271     0.306867994
 H       -4.212784812    15.314298805     0.951360854
 H       -1.698923547    12.491284542     1.582100484
 H       -2.839151708    13.587377554     2.381271888
 H       -1.379837371    14.219968795     1.629029754
 H       -3.213944910    13.437465671    -2.903647736
 H       -4.517282815    12.917255910    -3.960737620
 H       -3.531019286    11.709177441    -3.149791396
 H       -6.955997973    11.704559538    -1.418006538
 H       -5.801444283    10.678284983    -2.289265798
 H       -6.637228657    11.979562968    -3.125436373
 H       -2.507709867    -1.711377060    -0.711966956
 H       -2.413290256    -1.725440358    -2.465763496
 H       -2.700039882    -0.204824793    -1.632591003
 H        0.894983233    -0.103903368    -2.954863340
 H       -0.651417794     0.763544230    -2.977086807
 H       -0.512737843    -0.824432001    -3.720447275
 H       -0.457751157    -2.974263967     0.770628568
 H       -0.644960104    -2.851861310     2.513596279
 H        0.903801092    -2.457189406     1.782455414
 H       -0.659602654     0.866064650     2.874106392
 H        0.777206284    -0.156008889     3.054347426
 H       -0.771002412    -0.680197012     3.703874240

