187   

Si        0.000000000     0.000000000     0.000000000
 C        1.865391643     0.000000000     0.000000000
 C       -0.657514388     1.720093773     0.000000000
 C        0.056984269     2.746696638    -0.627574587
 C       -0.433182589     4.051989373    -0.632556852
 C       -1.648501460     4.361336509    -0.015561234
 C       -2.366152749     3.331059258     0.605885616
 C       -1.880678921     2.025887986     0.609882294
 C       -2.199632952     5.712107954     0.003965125
 C       -1.614703291     6.784746789    -0.555640242
 C       -2.165942786     8.135315979    -0.536009653
 C       -1.448803162     9.164501173    -1.160628298
 C       -1.935670436    10.468927436    -1.167279984
 C       -3.151700233    10.773901411    -0.543610316
 C       -3.867104922     9.749771648     0.086041518
 C       -3.375588431     8.445007844     0.091880440
Si       -3.806438542    12.491984600    -0.544726692
 C       -5.618888349    12.421647711    -0.297744411
 C       -6.301092739    13.137830618     0.604576909
 C       -7.753109954    13.070137792     0.790080836
 C       -8.337154062    13.879467557     1.776386960
 C       -9.705500551    13.856983525     1.996219498
 C      -10.522933532    13.002899193     1.236220090
 C       -9.945923311    12.171560116     0.270827637
 C       -8.568834525    12.194646786     0.068644734
 N      -11.924239947    13.046110977     1.531577809
 C      -12.583593173    14.222246393     0.917930396
 C      -12.642695122    11.785148387     1.276546197
 C      -12.765445382    14.140025737    -0.610408595
 C      -12.414444689    15.449350257    -1.342197115
 N      -10.987834921    15.626745106    -1.681785589
 C      -10.359222194    14.558419679    -2.349857221
 C      -11.094590238    13.773858625    -3.264427645
 C      -10.490229561    12.719268588    -3.929636911
 C       -9.135501545    12.418597716    -3.735018772
 C       -8.398661815    13.222117494    -2.860102957
 C       -8.985450401    14.291635684    -2.197422084
 C      -10.210834074    16.283616906    -0.617199218
 C       -8.547466675    11.293340284    -4.463270342
 C       -7.266445551    10.920270809    -4.351757166
Si       -6.459560556     9.531917946    -5.223838743
 C       -4.909654393    10.163649628    -5.989078519
 C       -4.839331007    11.496655155    -6.409376287
 C       -3.674346287    11.994164868    -6.991268993
 C       -2.556650775    11.172904651    -7.164109463
 C       -2.631190440     9.837904657    -6.745550082
 C       -3.794988094     9.336243117    -6.168205027
 C       -1.317377777    11.650796165    -7.767868817
 C       -1.115919113    12.903731837    -8.209925548
 C        0.122883719    13.382670029    -8.813815184
 C        1.240450883    12.563313450    -8.992405922
 C        2.405421966    13.062710856    -9.574643900
 C        2.475824645    14.394202571    -9.996093913
 C        1.356235108    15.218235210    -9.817807497
 C        0.196777062    14.718259659    -9.231817584
Si        4.006664740    15.066811270   -10.766048088
 C        5.164024403    13.702576875   -11.294282016
 C        3.507953927    16.122797098   -12.269494608
 C        4.903834897    16.185028037    -9.513966807
 C       -6.048951188     8.177354180    -3.952633633
 C       -7.580221525     8.794169508    -6.567525360
 C       -2.963401274    13.474922151     0.848255520
 C       -3.415905067    13.352494222    -2.194120537
 C       -0.634294182    -0.898341168    -1.553202768
 C       -0.647600577    -0.928217250     1.530746882
 H        1.014230227     2.566848856    -1.124971722
 H        0.143761191     4.833008905    -1.124437383
 H       -3.315872737     3.549515636     1.090675992
 H       -2.487370947     1.263883318     1.106761973
 H       -3.157966012     5.807504282     0.522973391
 H       -0.656307902     6.689025923    -1.074137705
 H       -0.503092728     8.943935023    -1.651776785
 H       -1.337561417    11.229913635    -1.676850580
 H       -4.821772170     9.932402374     0.590719992
 H       -3.947147292     7.665130930     0.591387078
 H       -6.132493439    11.719963860    -0.977274672
 H       -5.816593564    13.847776144     1.287924760
 H       -7.710744783    14.538660039     2.376781684
 H      -10.155625272    14.478250152     2.768407345
 H      -10.562796221    11.505392947    -0.326648320
 H       -8.134618942    11.530533214    -0.681747788
 H      -13.648609566    11.861619736     1.724475047
 H      -12.115796147    10.960472712     1.788231337
 H      -12.755515911    11.521386468     0.214165444
 H      -10.804026587    17.089141751    -0.155993255
 H       -9.318817313    16.759193877    -1.065082989
 H       -9.880905937    15.591145216     0.177677258
 H      -12.140314642    13.994384234    -3.455481627
 H      -11.082529344    12.120090593    -4.621318428
 H       -7.335502145    13.025542979    -2.699514681
 H       -8.372086373    14.892013877    -1.531018314
 H       -9.261280260    10.781769843    -5.120585893
 H       -6.579881609    11.451955576    -3.668515370
 H       -5.683274519    12.185988161    -6.297148379
 H       -3.643699788    13.033333633    -7.312824590
 H       -1.771871436     9.182599968    -6.872088200
 H       -3.796369681     8.286330676    -5.861829510
 H       -0.526341063    10.899354667    -7.845133457
 H       -1.907791574    13.654818232    -8.133826386
 H        1.210167010    11.522039815    -8.676948003
 H        3.246491856    12.373211336    -9.688314328
 H        1.353201856    16.266938477   -10.128147413
 H       -0.662074516    15.373836286    -9.100616331
 H      -13.571700086    14.337154286     1.416673200
 H      -11.992575658    15.123422160     1.194335530
 H      -12.144033472    13.314581840    -1.017419740
 H      -13.807004933    13.857290824    -0.847436118
 H      -12.983821899    15.502466284    -2.301713895
 H      -12.753273789    16.327139161    -0.749726911
 H        2.264156747    -1.028163672     0.062724185
 H        2.258229698     0.563043934     0.866527209
 H        2.277437569     0.461738900    -0.913977749
 H        6.057446071    14.111700085   -11.798985193
 H        4.667593858    13.015890541   -12.003917092
 H        5.512672928    13.104394169   -10.434410365
 H        2.862445325    16.954823494   -11.862705022
 C        4.704688718    16.766074750   -12.992462412
 C        2.669600153    15.333759322   -13.291366918
 H        5.850922068    16.520050107   -10.027706930
 C        4.102601207    17.440566248    -9.125564810
 C        5.297584682    15.434066752    -8.228745045
 H       -5.619076444     7.317868278    -4.543804792
 C       -4.994897719     8.624900654    -2.927799555
 C       -7.288336153     7.664494115    -3.197381705
 H       -8.546614395     8.522117400    -6.052336397
 C       -7.900622064     9.802145033    -7.686720288
 C       -7.005405426     7.516218582    -7.204661901
 H       -3.473834104    14.480617489     0.874875516
 C       -3.138043588    12.809999629     2.225958821
 C       -1.462250457    13.711559171     0.604161502
 H       -2.293380060    13.472431171    -2.213520670
 C       -3.822156356    12.525279054    -3.422401971
 C       -4.048103236    14.751523741    -2.306812993
 H       -0.173645729    -1.927740734    -1.524149017
 C       -2.165001939    -1.059614988    -1.576599828
 C       -0.189397735    -0.213332787    -2.858299435
 H       -1.773453494    -0.915058462     1.449005716
 C       -0.199873026    -2.399926845     1.589581475
 C       -0.260611629    -0.235826773     2.850215172
 H        5.315382320    17.403871819   -12.340432391
 H        4.347168700    17.412753692   -13.807037673
 H        5.371068715    16.027721497   -13.457762682
 H        1.762536530    14.888963678   -12.857331300
 H        3.233097390    14.526373238   -13.777486408
 H        2.329206660    16.001114592   -14.095899501
 H        3.855291743    18.081750041    -9.981053716
 H        4.691706181    18.063340243    -8.436523961
 H        3.167101297    17.203888642    -8.599240272
 H        5.940920556    14.563729456    -8.411114516
 H        4.426971089    15.089413361    -7.652335004
 H        5.863895200    16.099946993    -7.561810723
 H       -4.063946097     8.995621571    -3.379319443
 H       -4.699373311     7.778075060    -2.290236150
 H       -5.361895085     9.405333279    -2.246288457
 H       -8.059358817     7.247220501    -3.856423687
 H       -7.762056699     8.439772609    -2.577976798
 H       -6.999827316     6.854793132    -2.511585770
 H       -8.354670916    10.733901791    -7.322864963
 H       -8.618398458     9.364857176    -8.394641821
 H       -7.014878720    10.077042735    -8.277578687
 H       -6.848261798     6.702928946    -6.484603682
 H       -6.055016320     7.689020531    -7.729145620
 H       -7.703455249     7.125552038    -7.959110610
 H       -4.186743583    12.636226953     2.502495492
 H       -2.713806413    13.451020899     3.011463737
 H       -2.615427378    11.845244177     2.301407003
 H       -1.253702579    14.284890492    -0.308199527
 H       -0.883394733    12.778343778     0.555407568
 H       -1.033480277    14.292597892     1.433681682
 H       -3.459515041    11.487410396    -3.402915171
 H       -3.400987152    12.967662743    -4.338083619
 H       -4.910145266    12.495556343    -3.571329385
 H       -3.727170662    15.441310625    -1.516838092
 H       -5.147422735    14.727393153    -2.302421054
 H       -3.755408514    15.218183958    -3.258779237
 H       -2.555267152    -1.634057950    -0.726863832
 H       -2.472010671    -1.604263925    -2.481254048
 H       -2.696074383    -0.097437656    -1.603758496
 H        0.900483668    -0.132909233    -2.959041084
 H       -0.611779060     0.794943759    -2.976499560
 H       -0.535407591    -0.794436161    -3.725201084
 H       -0.503583809    -2.982651479     0.710377567
 H       -0.655944644    -2.896116092     2.458662487
 H        0.885980313    -2.513188288     1.707198676
 H       -0.588865554     0.811836311     2.905472767
 H        0.820796271    -0.252325866     3.041319220
 H       -0.732127147    -0.751151462     3.699085892

