187   

Si        0.000000000     0.000000000     0.000000000
 C        1.864973223     0.000000000     0.000000000
 C       -0.648272913     1.725211594     0.000000000
 C        0.004168864     2.713743099    -0.747249242
 C       -0.470839664     4.024525892    -0.760047791
 C       -1.583469645     4.389288073     0.003549244
 C       -2.232760375     3.399912386     0.753096135
 C       -1.782319298     2.081874483     0.739840535
 C       -2.117240080     5.747162558     0.022916751
 C       -1.612660633     6.779076388    -0.674572732
 C       -2.147875982     8.136576380    -0.653964794
 C       -3.260727765     8.498109530     0.110752918
 C       -3.739121672     9.807748333     0.100938841
 C       -3.133939101    10.781968782    -0.701092437
 C       -2.025492117    10.418060517    -1.476256958
 C       -1.536715689     9.114128667    -1.448766735
Si       -3.764692656    12.516006863    -0.716292993
 C       -2.836526835    13.439362106    -1.999685641
 C       -3.413706806    14.188168510    -2.948635872
 C       -2.700514430    14.935125054    -3.984247672
 C       -3.451325167    15.673385937    -4.907282678
 C       -2.840211088    16.404333321    -5.914705390
 C       -1.435273967    16.502611581    -5.971826690
 C       -0.677246434    15.781046940    -5.022645234
 C       -1.305078701    14.999930305    -4.064425669
 N       -0.779219739    17.230365991    -6.972029429
 C       -1.564045641    17.972534016    -7.966689820
 C        0.507391786    17.840981870    -6.605313573
 C       -2.415590962    19.141228613    -7.437435506
 C       -1.631114335    20.456243744    -7.272968566
 N       -1.876583631    21.160751527    -5.993904094
 C       -1.314568819    20.446505516    -4.882742831
 C        0.046185572    20.685010446    -4.632070131
 C        0.674565377    20.039129675    -3.579019667
 C       -0.023837478    19.122560044    -2.778042338
 C       -1.377906783    18.894188448    -3.032755062
 C       -2.028503221    19.563958536    -4.064983825
 C       -3.287077930    21.547619010    -5.809810271
 C        0.701011986    18.476264141    -1.682423880
 C        0.174247069    17.583131737    -0.834869836
Si        1.125596364    16.805258649     0.518220749
 C        1.017058770    14.976477843     0.616472479
 C        0.654021309    14.143182218    -0.445272648
 C        0.600057873    12.758338087    -0.271270070
 C        0.919098082    12.177267247     0.961254916
 C        1.292259054    13.018497565     2.016726625
 C        1.345942403    14.396890720     1.849333583
 C        0.862677033    10.727255079     1.143723305
 C        1.163236473    10.148442695     2.318716063
 C        1.151179363     8.730050618     2.644350672
 C        0.810160302     7.722845658     1.741444937
 C        0.824734130     6.383498685     2.137488560
 C        1.196849208     6.028250589     3.438044598
 C        1.541107930     7.039833230     4.344086490
 C        1.511841547     8.372592277     3.952497022
Si        1.228358101     4.275771830     3.996635821
 C        1.373009764     3.130817541     2.537962449
 C        2.714949594     3.914763456     5.134435891
 C       -0.379897328     3.973311630     4.966613140
 C        2.966344130    17.275471119     0.389718228
 C        0.410530339    17.527341157     2.133896190
 C       -5.620628260    12.530795877    -1.154656692
 C       -3.570565422    13.325115511     0.992855281
 C       -0.632654180    -0.884346997    -1.562518170
 C       -0.657574861    -0.947263244     1.514398215
 H        0.892967855     2.494890798    -1.345854688
 H        0.043858616     4.768652093    -1.365441661
 H       -3.110345236     3.658865798     1.343518237
 H       -2.342633923     1.351914050     1.330140846
 H       -2.988327297     5.886921373     0.670048409
 H       -0.742183046     6.640339003    -1.322546544
 H       -3.756817499     7.757671614     0.735443891
 H       -4.596690356    10.034870524     0.740215329
 H       -1.519380364    11.129835872    -2.135530871
 H       -0.673690045     8.854257862    -2.058459893
 H       -1.741494530    13.359475118    -1.920159368
 H       -4.504607316    14.295870809    -3.031853692
 H       -4.540596035    15.654535828    -4.856886870
 H       -3.463718497    16.899672241    -6.650661456
 H        0.407479215    15.826195872    -5.043191202
 H       -0.694982580    14.436524754    -3.356741383
 H        0.844667998    18.550713628    -7.375912973
 H        1.275071536    17.048247916    -6.534284964
 H        0.463667760    18.377070421    -5.639078972
 H       -3.554584821    22.268536575    -6.601589344
 H       -3.394786087    22.066860720    -4.841347511
 H       -4.005991018    20.715596283    -5.841013273
 H        0.587655648    21.393391602    -5.256818819
 H        1.725110010    20.245697331    -3.376121502
 H       -1.938041335    18.183442631    -2.422618963
 H       -3.085539044    19.380393647    -4.238946075
 H        1.749783078    18.801082085    -1.625564182
 H       -0.879037781    17.268355039    -0.907053390
 H        0.396682010    14.549044669    -1.427653217
 H        0.309500782    12.121900028    -1.105355765
 H        1.549250219    12.599883670     2.989233800
 H        1.647060721    14.990631327     2.718319158
 H        0.548015867    10.144162295     0.277080460
 H        1.463344705    10.779342705     3.167436739
 H        0.513018120     7.978540524     0.725358852
 H        0.532819963     5.634654510     1.392934663
 H        1.835432464     6.822607806     5.374895708
 H        1.776208779     9.145394026     4.671510124
 H       -0.867907428    18.332607003    -8.758213104
 H       -2.231497700    17.231800496    -8.473303342
 H       -3.273993086    19.301120286    -8.114860737
 H       -2.860986074    18.853902893    -6.462289504
 H       -0.535953297    20.276516058    -7.349420002
 H       -1.885129912    21.164505867    -8.092076623
 H        2.263469250    -1.028035595     0.062137554
 H        2.259871059     0.564576668     0.865571131
 H        2.276075513     0.461640844    -0.914410826
 H        1.450737455     2.076546185     2.855529108
 H        2.261301995     3.364035468     1.924828545
 H        0.484837206     3.217434859     1.880530443
 H        2.780272711     2.787983706     5.177036685
 C        4.037760634     4.444365514     4.549881759
 C        2.575212375     4.424057410     6.580085946
 H       -0.350959588     4.699689744     5.830469183
 C       -1.637436909     4.280132589     4.134478156
 C       -0.498431559     2.551440696     5.543469567
 H        2.995292176    18.398467071     0.284261795
 C        3.787523215    16.899966713     1.635714544
 C        3.638993125    16.655928436    -0.849350624
 H        1.063839264    17.142529451     2.968467783
 C        0.448229128    19.064570600     2.173668894
 C       -1.028972880    17.050555166     2.396502636
 H       -5.874738775    13.613880665    -1.347173912
 C       -5.918466381    11.730612661    -2.436337437
 C       -6.553646603    12.028938099    -0.038646840
 H       -4.403392334    12.896325032     1.623349723
 C       -2.244468500    12.998837580     1.693964665
 C       -3.741815134    14.854775036     0.943144095
 H       -0.182977518    -1.918589317    -1.534595161
 C       -2.164720742    -1.028886633    -1.595813325
 C       -0.172601913    -0.200246293    -2.862661263
 H       -1.783385240    -0.913577138     1.434493084
 C       -0.234793609    -2.427580132     1.537026781
 C       -0.257856031    -0.297376439     2.850858338
 H        4.259930909     4.050339813     3.549165833
 H        4.880081767     4.149940478     5.191106606
 H        4.067351280     5.541396261     4.484727611
 H        1.669061377     4.064390171     7.083796100
 H        2.584891422     5.519376388     6.653735152
 H        3.423224353     4.070720018     7.184427244
 H       -1.646828597     5.300408875     3.723851995
 H       -2.535931499     4.191606281     4.760129587
 H       -1.769924372     3.583813286     3.294293200
 H        0.336567806     2.275861861     6.199986139
 H       -0.577795120     1.780829824     4.764661265
 H       -1.409579691     2.468852453     6.152831560
 H        3.422535839    17.370952246     2.557161318
 H        4.828373128    17.233598494     1.513535101
 H        3.834489341    15.814998924     1.806575322
 H        3.135678995    16.901205826    -1.794621464
 H        3.709120577    15.559967523    -0.789903431
 H        4.670088633    17.024344908    -0.942614663
 H        1.460451966    19.477778894     2.078198737
 H        0.058429605    19.426231570     3.135793807
 H       -0.174662831    19.529053590     1.395568694
 H       -1.130615018    15.954999521     2.412194916
 H       -1.749225827    17.438981127     1.663258402
 H       -1.369153843    17.403665968     3.380119496
 H       -5.328898492    12.054365891    -3.305405808
 H       -6.973971771    11.845813320    -2.718667061
 H       -5.747631610    10.651495811    -2.312504641
 H       -6.455697693    12.590162351     0.899149053
 H       -6.416566381    10.963476218     0.188911994
 H       -7.602393656    12.139616884    -0.351176534
 H       -2.016101561    11.924422667     1.736715446
 H       -2.268289321    13.347468858     2.735305035
 H       -1.382722584    13.496008747     1.222414245
 H       -4.707839637    15.174412823     0.533377580
 H       -2.950261018    15.351285707     0.361739995
 H       -3.684183069    15.270836971     1.959037723
 H       -2.567473271    -1.598417024    -0.748610991
 H       -2.471905215    -1.570490011    -2.502305537
 H       -2.685117749    -0.060986572    -1.626690709
 H        0.918517538    -0.128363436    -2.955550196
 H       -0.587535729     0.810852233    -2.982791802
 H       -0.516559008    -0.777544463    -3.733102258
 H       -0.556474409    -2.986148511     0.648585080
 H       -0.692208217    -2.935246260     2.398760905
 H        0.849765399    -2.562934001     1.642051453
 H       -0.561849697     0.757400263     2.928090431
 H        0.822308382    -0.347147586     3.044183599
 H       -0.744801436    -0.821290456     3.685566345

