187   

Si        0.000000000     0.000000000     0.000000000
 C        1.865583131     0.000000000     0.000000000
 C       -0.639985490     1.725509277     0.000000000
 C       -0.068540023     2.665094813     0.866709972
 C       -0.531700023     3.978476231     0.889291894
 C       -1.574683105     4.386991638     0.052596089
 C       -2.148187708     3.444526105    -0.809166735
 C       -1.690057969     2.128641675    -0.832788306
 C       -2.085856425     5.755011622     0.049137466
 C       -1.607087827     6.730955228     0.838314500
 C       -2.079575999     8.108721619     0.874558970
 C       -1.465414798     9.003881514     1.762686630
 C       -1.877976215    10.330023061     1.837202827
 C       -2.917840814    10.800108809     1.022010299
 C       -3.529751853     9.908244018     0.137294723
 C       -3.115930593     8.577471574     0.065285114
Si       -3.421144821    12.563782934     1.163843916
 C       -4.775670389    13.089055985     0.056833928
 C       -5.083754330    12.612881844    -1.156367602
 C       -6.201787624    13.116438304    -1.957126509
 C       -6.449980905    12.557525728    -3.217440031
 C       -7.498636796    13.006362940    -4.006394852
 C       -8.324585431    14.061915701    -3.569378061
 C       -8.078202952    14.620484765    -2.299406166
 C       -7.046763570    14.136283510    -1.508105366
 N       -9.395320546    14.536851113    -4.349844941
 C       -9.442374911    14.150950487    -5.767922926
 C       -9.807202718    15.932557301    -4.118018209
 C       -8.314537476    14.773680004    -6.607626627
 C       -8.175564886    14.096541059    -7.980982822
 N       -7.483925163    12.801246203    -7.973807249
 C       -6.155078702    12.732356658    -7.546354366
 C       -5.365841018    13.897810815    -7.434551300
 C       -4.049873762    13.814636225    -7.009480333
 C       -3.450298490    12.578292067    -6.732091305
 C       -4.225000719    11.422898909    -6.866901094
 C       -5.553359029    11.487731423    -7.264237453
 C       -8.341811068    11.633308745    -7.734033933
 C       -2.056864690    12.557067114    -6.286667499
 C       -1.370576984    11.445382009    -5.990360630
Si        0.369146031    11.411379008    -5.433718162
 C        0.636725952    10.402534267    -3.919772932
 C       -0.151348260    10.582876036    -2.775966063
 C        0.068511976     9.807459090    -1.639439751
 C        1.098289035     8.858103968    -1.606334663
 C        1.885824826     8.684851073    -2.747223413
 C        1.652231264     9.440245672    -3.894071443
 C        1.301937922     8.062272534    -0.400597500
 C        2.240279205     7.109309036    -0.268179275
 C        2.455880385     6.306059716     0.929811442
 C        1.686439582     6.454162141     2.086789033
 C        1.924615010     5.666331347     3.211342708
 C        2.916152545     4.678307903     3.189257795
 C        3.678565757     4.516072773     2.026668311
 C        3.453880218     5.322973483     0.913799383
Si        3.200086017     3.658734420     4.694844578
 C        1.564691042     3.069762656     5.373711072
 C        4.297446930     2.160758963     4.275438671
 C        4.103571600     4.709042899     5.998068547
 C        1.392121234    10.724421983    -6.889249554
 C        0.994581173    13.173071915    -5.059304679
 C       -4.041252252    12.916704420     2.931607678
 C       -1.888236891    13.640085739     0.820752589
 C       -0.646712739    -0.946190007    -1.519040581
 C       -0.632341872    -0.881433776     1.565629184
 H        0.756747079     2.412974829     1.540548177
 H       -0.059058095     4.689728864     1.568357101
 H       -2.960980271     3.739031099    -1.469690528
 H       -2.180422000     1.438166462    -1.523354478
 H       -2.893432841     5.948799608    -0.660438410
 H       -0.802159166     6.507935545     1.547541613
 H       -0.665787742     8.659990374     2.416063621
 H       -1.353468659    10.979673190     2.544425409
 H       -4.357346360    10.209659663    -0.512258518
 H       -3.608886068     7.904392647    -0.633578259
 H       -5.374159720    13.906323579     0.497411094
 H       -4.510351000    11.821352234    -1.656587918
 H       -5.806907523    11.759588005    -3.594110910
 H       -7.654400585    12.544494936    -4.977032549
 H       -8.702569203    15.421774230    -1.918082668
 H       -6.891007500    14.577245982    -0.522172671
 H      -10.548065938    16.247112955    -4.870383472
 H       -8.964448163    16.642779552    -4.143335243
 H      -10.303241301    16.002215604    -3.132411396
 H       -9.391739563    11.856499660    -7.982138144
 H       -8.300967133    11.270694654    -6.691913655
 H       -8.021916950    10.810734647    -8.402568384
 H       -5.779260137    14.871673445    -7.674707719
 H       -3.469475360    14.732043484    -6.901585589
 H       -3.784259957    10.447517709    -6.653567411
 H       -6.117883312    10.566422858    -7.356397441
 H       -1.618852452    13.561883401    -6.210678341
 H       -1.831457392    10.448784580    -6.077691370
 H       -0.970229950    11.309621627    -2.747200696
 H       -0.574375338     9.937361664    -0.766089658
 H        2.687519993     7.948759724    -2.752135414
 H        2.298402876     9.247123495    -4.754797377
 H        0.617664767     8.297126021     0.420429606
 H        2.914881586     6.876635619    -1.097281080
 H        0.917836219     7.224413442     2.131705947
 H        1.300929410     5.844574804     4.092414154
 H        4.468609651     3.764404812     1.951152442
 H        4.059052212     5.181784344     0.020507818
 H       -9.413663818    13.038909210    -5.823175328
 H      -10.436806355    14.442388502    -6.174854239
 H       -8.495415338    15.855526193    -6.740629214
 H       -7.355439247    14.705455521    -6.049881398
 H       -9.177556556    13.962437480    -8.447490797
 H       -7.615798451    14.771060541    -8.674805600
 H        2.264853958    -1.028321956    -0.037739267
 H        2.275655790     0.488404352     0.901722838
 H        2.256557373     0.543882558    -0.879612620
 H        1.708001078     2.432763895     6.263912623
 H        1.017072463     2.472615218     4.620399196
 H        0.913719243     3.912028296     5.666086604
 H        5.240501941     2.585387021     3.823253414
 C        4.701977933     1.334529291     5.509997354
 C        3.654436407     1.219154981     3.241044549
 H        4.228039913     4.040641882     6.898456198
 C        5.502191909     5.161467092     5.540929718
 C        3.302344207     5.948821873     6.435214858
 H        2.454607967    10.648469367    -6.518604483
 C        0.932141377     9.322816276    -7.329309057
 C        1.387067546    11.653004313    -8.117352224
 H        0.799332287    13.774315547    -5.993549057
 C        0.245198159    13.842120245    -3.893027806
 C        2.504977092    13.222153565    -4.766784646
 H       -4.366585039    13.997598933     2.925233346
 C       -5.263212290    12.051907235     3.290718958
 C       -2.978851389    12.755309680     4.031705976
 H       -1.140555581    13.378370348     1.624262387
 C       -1.246056376    13.334205340    -0.543170284
 C       -2.179083971    15.148454520     0.910901082
 H       -1.770970776    -0.848725739    -1.490199816
 C       -0.151268424    -0.346959902    -2.848275335
 C       -0.307352157    -2.448076268    -1.497088797
 H       -0.179523287    -1.914097345     1.539758813
 C       -0.180967908    -0.196407144     2.868799207
 C       -2.164319451    -1.030403490     1.593387325
 H        5.253943672     1.915389051     6.260236101
 H        5.368396192     0.512684163     5.210254323
 H        3.845742077     0.866818169     6.013735741
 H        3.348942309     1.730055736     2.316401005
 H        2.774930317     0.692620675     3.637411343
 H        4.371193298     0.441083141     2.942482922
 H        6.173632198     4.327036901     5.301258404
 H        5.994608292     5.731020026     6.342526413
 H        5.471415633     5.827140859     4.666481327
 H        2.311003949     5.707515779     6.839372040
 H        3.167520616     6.677047923     5.622651623
 H        3.838610917     6.479344261     7.235477336
 H        0.904614106     8.588797698    -6.512461701
 H        1.623610880     8.918876695    -8.082226868
 H       -0.062149666     9.331422784    -7.797685397
 H        1.807548795    12.645947455    -7.913003371
 H        0.383229192    11.796609197    -8.542015793
 H        2.000693487    11.219062584    -8.919557508
 H       -0.846286782    13.856524080    -4.019338979
 H        0.559024376    14.890864067    -3.796901581
 H        0.460543014    13.366280897    -2.924896887
 H        3.122145574    12.856122797    -5.597024265
 H        2.785501059    12.654355649    -3.867903024
 H        2.819927239    14.259526408    -4.584523645
 H       -6.099581976    12.162345624     2.586330491
 H       -5.651754804    12.337394638     4.278334407
 H       -5.025026665    10.980255187     3.351860088
 H       -2.075341466    13.353635902     3.860416103
 H       -2.672009347    11.710360584     4.176903196
 H       -3.387381243    13.087906360     4.997341250
 H       -0.908681892    12.291297110    -0.635189581
 H       -0.351865558    13.957713336    -0.686494883
 H       -1.912388252    13.548343635    -1.391260145
 H       -2.579346408    15.459905764     1.883674920
 H       -2.876588346    15.494719994     0.135032443
 H       -1.250638605    15.719390603     0.765655411
 H       -0.371033795     0.724532742    -2.955995676
 H       -0.641970193    -0.848517325    -3.694287669
 H        0.929210956    -0.476484828    -2.996857769
 H       -0.711316949    -2.971456730    -0.620857105
 H        0.771986250    -2.644986899    -1.536161222
 H       -0.741825156    -2.943736883    -2.377293629
 H        0.909725752    -0.111846982     2.960924328
 H       -0.519027026    -0.780306927     3.736534370
 H       -0.607939513     0.809959126     2.990234285
 H       -2.563981221    -1.590824436     0.738799245
 H       -2.686412981    -0.063442999     1.631220160
 H       -2.473519391    -1.581731919     2.492829174

