187   

Si        0.000000000     0.000000000     0.000000000
 C        1.864947383     0.000000000     0.000000000
 C       -0.684600100     1.708657244     0.000000000
 C        0.088149919     2.795488822     0.421546621
 C       -0.440747508     4.086218664     0.417448253
 C       -1.753222517     4.318969969    -0.001451969
 C       -2.528048475     3.228089174    -0.417944632
 C       -2.003104455     1.938907357    -0.415157044
 C       -2.350889222     5.649633380    -0.023682285
 C       -1.725393740     6.779927535     0.346758344
 C       -2.331974403     8.107020672     0.320974147
 C       -1.569995823     9.207306921     0.734177111
 C       -2.109163487    10.491908139     0.725706832
 C       -3.420446026    10.708068577     0.287303076
 C       -4.183008277     9.609927126    -0.128877459
 C       -3.645153816     8.324612489    -0.106704181
Si       -4.173058221    12.386844035     0.259047792
 C       -5.290716040    12.593972765    -1.172880942
 C       -5.129892943    11.963257520    -2.344277498
 C       -6.018643248    12.122465113    -3.495538224
 C       -5.742007562    11.405075379    -4.668038918
 C       -6.550666507    11.518778556    -5.786971774
 C       -7.712290640    12.320500153    -5.751782111
 C       -7.992927300    13.038074236    -4.572269444
 C       -7.142742534    12.952512505    -3.477693828
 N       -8.530299429    12.433592601    -6.888606081
 C       -8.561451440    11.292936882    -7.820342899
 C       -9.853599400    13.053500001    -6.699143143
 C       -9.128783902    10.009430891    -7.188390859
 C       -9.513872215     8.949811404    -8.233490482
 N      -10.546466033     9.355599866    -9.214928367
 C      -11.561579053    10.200241758    -8.709405165
 C      -12.271779144     9.769139407    -7.568950716
 C      -13.275398095    10.558369241    -7.033856962
 C      -13.627852539    11.781148308    -7.626378182
 C      -12.938783138    12.191641500    -8.769260373
 C      -11.924177564    11.413047419    -9.315829664
 C       -9.993359726     9.707508900   -10.532716578
 C      -14.697076374    12.576888575    -7.019100532
 C      -15.115797145    13.755621000    -7.496929998
Si      -16.442369493    14.791401372    -6.783529406
 C      -17.631716104    15.272785980    -8.100354769
 C      -17.712200056    14.531968970    -9.284116198
 C      -18.613061089    14.894227453   -10.284878728
 C      -19.459276091    15.994294294   -10.120410502
 C      -19.380858856    16.730386417    -8.930468613
 C      -18.479008095    16.374922076    -7.930918764
 C      -20.416752295    16.409432643   -11.140289447
 C      -20.591520541    15.792714068   -12.321374463
 C      -21.548599370    16.206914887   -13.341929574
 C      -22.392045359    17.309261650   -13.181980848
 C      -23.292597038    17.669749091   -14.184283785
 C      -23.373220095    16.929789839   -15.367983669
 C      -22.528908251    15.822917139   -15.530498806
 C      -21.627550584    15.468722026   -14.530572233
Si      -24.556012759    17.391627787   -16.700892041
 C      -25.802707116    18.646512329   -16.108839599
 C      -23.599237276    18.128713932   -18.172186061
 C      -25.440550288    15.810442981   -17.284820867
 C      -17.375905998    13.867790563    -5.408588343
 C      -15.644415099    16.351228460    -6.040823602
 C       -5.184005238    12.632051517     1.851805906
 C       -2.819005696    13.721056762     0.184617177
 C       -0.647247958    -0.916526805    -1.538617314
 C       -0.622716220    -0.915794724     1.548155999
 H        1.121215314     2.675481553     0.759315606
 H        0.182340800     4.915744468     0.746731004
 H       -3.553199643     3.387271833    -0.746957464
 H       -2.656047629     1.127824672    -0.749396288
 H       -3.386801248     5.678117112    -0.375102692
 H       -0.690336716     6.754826678     0.698986016
 H       -0.545441563     9.060010898     1.069868532
 H       -1.469640472    11.310224642     1.067155830
 H       -5.214265781     9.720003696    -0.482068203
 H       -4.259852459     7.487104341    -0.431279461
 H       -6.116595340    13.302987365    -1.013904590
 H       -4.307183823    11.257230407    -2.529263337
 H       -4.866649205    10.755091084    -4.707919401
 H       -6.282836106    10.979741634    -6.690504506
 H       -8.869412723    13.674612738    -4.505898048
 H       -7.373463488    13.533663773    -2.583718591
 H      -10.435632612    13.012595603    -7.637301800
 H       -9.718996527    14.121015844    -6.447943709
 H      -10.456878567    12.570285885    -5.912975765
 H       -9.381102516     8.864041257   -10.898606652
 H       -9.374000566    10.617739335   -10.541179856
 H      -10.820094861     9.832815867   -11.255182517
 H      -12.029425507     8.810192231    -7.116627842
 H      -13.807587260    10.215773505    -6.145751097
 H      -13.196832500    13.135919125    -9.251757436
 H      -11.410749675    11.765728528   -10.204909796
 H      -15.131542121    12.107853453    -6.126782773
 H      -14.653371160    14.202251015    -8.393502899
 H      -17.079564372    13.656872878    -9.465774340
 H      -18.653551323    14.306062085   -11.199938821
 H      -20.031471846    17.590179457    -8.782926778
 H      -18.460851995    16.986748996    -7.024892914
 H      -21.011348928    17.289568166   -10.878622328
 H      -19.997456359    14.911826880   -12.582502836
 H      -22.351984783    17.899598743   -12.268370106
 H      -23.926030974    18.542239505   -14.001762482
 H      -22.548304099    15.206852971   -16.433979850
 H      -20.979478063    14.606393021   -14.675563895
 H       -9.171024741    11.596150219    -8.702755925
 H       -7.533722758    11.119684502    -8.209902652
 H       -8.391848480     9.580126999    -6.481376713
 H      -10.009057400    10.262826507    -6.563078717
 H       -8.606654207     8.607700191    -8.777228761
 H       -9.916136022     8.049480267    -7.708017893
 H        2.262544576    -1.029578538    -0.046764158
 H        2.276375456     0.474316157     0.908079970
 H        2.259707147     0.548761044    -0.874541556
 H      -26.532150747    18.887901737   -16.902548909
 H      -25.319336457    19.591011874   -15.803293527
 H      -26.371028521    18.262178966   -15.242406781
 H      -24.384825218    18.445834527   -18.917536162
 C      -22.782812416    19.373904278   -17.779841488
 C      -22.662382922    17.124204828   -18.866519855
 H      -24.628564979    15.124975153   -17.665965255
 C      -26.168607744    15.085087099   -16.138717984
 C      -26.432715181    16.051156258   -18.436396740
 H      -16.588082369    13.512517947    -4.682927864
 C      -18.364821871    14.759855441    -4.637051877
 C      -18.132540760    12.636365192    -5.939055255
 H      -16.487271755    16.942910818    -5.579682990
 C      -14.622696687    16.034584362    -4.934509926
 C      -14.972457960    17.234013203    -7.107531455
 H       -5.612545105    13.673887733     1.791480502
 C       -6.355657669    11.639404718     1.958593283
 C       -4.331438795    12.538363061     3.129196518
 H       -2.178514756    13.568694353     1.100740961
 C       -1.922557612    13.574346259    -1.058142329
 C       -3.377171974    15.154811217     0.229053373
 H       -1.771738084    -0.931324257    -1.441067289
 C       -0.297388353    -0.188519576    -2.849135185
 C       -0.165258168    -2.375284556    -1.631728911
 H       -0.143919750    -1.936758070     1.514457777
 C       -0.189641454    -0.228043692     2.855820906
 C       -2.150101126    -1.105127763     1.572311037
 H      -23.392990077    20.178194488   -17.349116227
 H      -22.295862636    19.800393951   -18.668583936
 H      -21.977238542    19.148848414   -17.066072310
 H      -23.180188749    16.234024559   -19.245302452
 H      -21.842001415    16.787463603   -18.217155242
 H      -22.187222186    17.596024402   -19.739067856
 H      -25.508273515    14.831054717   -15.297089461
 H      -26.585549468    14.133868666   -16.499091678
 H      -27.012989929    15.659258935   -15.734899990
 H      -25.969210722    16.503644058   -19.322578537
 H      -27.282918043    16.681854085   -18.144597429
 H      -26.860704060    15.094130770   -18.768748541
 H      -17.886744469    15.614294810    -4.141463866
 H      -18.852094657    14.178162290    -3.840837582
 H      -19.175622154    15.147390225    -5.270078376
 H      -17.492045592    11.921719196    -6.473643034
 H      -18.959028998    12.903153562    -6.613862280
 H      -18.584240261    12.082072159    -5.104356012
 H      -15.052586455    15.478031325    -4.091750765
 H      -14.222682090    16.968126880    -4.513461709
 H      -13.756196255    15.466151083    -5.301792818
 H      -15.653954317    17.535611588    -7.915648850
 H      -14.098598339    16.756083598    -7.570914987
 H      -14.608515625    18.165483610    -6.650782049
 H       -7.043271839    11.682229438     1.102910912
 H       -6.958561550    11.862087366     2.850231882
 H       -6.023115819    10.596811094     2.065729436
 H       -3.525217222    13.281813776     3.170730246
 H       -3.879110376    11.546194991     3.270097851
 H       -4.959066494    12.716555471     4.014334022
 H       -1.439861689    12.590468555    -1.136452933
 H       -1.110853550    14.314586620    -1.028255067
 H       -2.465717004    13.749784657    -1.998452882
 H       -3.967841540    15.365501602     1.129509625
 H       -3.998029693    15.398303094    -0.644648967
 H       -2.550287022    15.879654254     0.228755507
 H       -0.658503763     0.849484643    -2.878965274
 H       -0.764763221    -0.701006388    -3.701930550
 H        0.781246538    -0.168717221    -3.054176784
 H       -0.442662573    -2.981432023    -0.759675191
 H        0.921255193    -2.459848252    -1.766109446
 H       -0.621192003    -2.865878797    -2.504005010
 H        0.898549562    -0.125948863     2.955746090
 H       -0.523005810    -0.819620066     3.720587101
 H       -0.631184424     0.771454765     2.978927473
 H       -2.531760439    -1.676531366     0.716797735
 H       -2.697972338    -0.152925171     1.613293737
 H       -2.444847952    -1.666307727     2.471038596

