187   

Si        0.000000000     0.000000000     0.000000000
 C        1.865410100     0.000000000     0.000000000
 C       -0.676336742     1.712051712     0.000000000
 C        0.101676449     2.792264712     0.429179932
 C       -0.418005988     4.086563744     0.426195833
 C       -1.726310992     4.330293013     0.000218239
 C       -2.506421994     3.246233217    -0.423902220
 C       -1.990745313     1.953154586    -0.421640194
 C       -2.312590916     5.666177441    -0.020399401
 C       -1.677307854     6.788140431     0.358612296
 C       -2.266523504     8.122963978     0.336815622
 C       -3.575541394     8.361375187    -0.090150714
 C       -4.099601655     9.653799738    -0.094933613
 C       -3.329389119    10.734430848     0.345648102
 C       -2.017325743    10.498011122     0.777954685
 C       -1.492439555     9.208746990     0.767878409
Si       -3.990591302    12.451437122     0.352178209
 C       -3.368058889    13.414401003     1.775374826
 C       -3.041973139    12.879755061     2.960062579
 C       -2.543543060    13.649592663     4.100033583
 C       -2.235405783    12.975739483     5.290796140
 C       -1.760518948    13.656934016     6.399019718
 C       -1.527212590    15.049486997     6.336931364
 C       -1.834294409    15.726740747     5.139558918
 C       -2.352626182    15.033349849     4.054325737
 N       -1.047491803    15.725862412     7.463174429
 C       -0.152596134    15.006657903     8.382078230
 C       -0.776850606    17.162883941     7.337966801
 C        1.081425927    14.353198445     7.732381934
 C        2.214264642    15.331823709     7.374170175
 N        2.890993994    16.001383315     8.503749970
 C        2.275676358    17.205212288     8.935163637
 C        2.239361265    18.271673433     8.014090257
 C        1.654261461    19.476107222     8.367526108
 C        1.115760396    19.668238202     9.649321336
 C        1.180749228    18.617185002    10.566886967
 C        1.765151747    17.401705701    10.226293949
 C        3.319210215    15.080106477     9.567122383
 C        0.508443571    20.962102393     9.970567672
 C       -0.035271670    21.258862391    11.157505227
Si       -0.805848060    22.852948482    11.614789693
 C       -2.458081198    22.536633552    12.357832447
 C       -3.144471429    21.352899582    12.059475201
 C       -4.395958135    21.105200437    12.617618230
 C       -4.996280953    22.036797247    13.474862289
 C       -4.311026051    23.220525912    13.763852340
 C       -3.055708145    23.470219420    13.210945975
 C       -6.308744137    21.730652629    14.034172467
 C       -6.991076630    22.531849273    14.869913861
 C       -8.303611438    22.224330558    15.428484300
 C       -8.987383291    21.040848629    15.138805951
 C      -10.241101745    20.786960376    15.694959467
 C      -10.835722041    21.710561945    16.560267625
 C      -10.151468045    22.898242652    16.853062882
 C       -8.903125191    23.151463298    16.291610580
Si      -12.489822678    21.390139841    17.302413419
 C      -13.004218211    19.609834671    17.087885617
 C      -12.411591105    21.833630688    19.152000637
 C      -13.785617759    22.506557458    16.467299412
 C        0.313034425    23.726335574    12.880996651
 C       -1.013344587    23.981321923    10.098897738
 C       -3.442436171    13.321500412    -1.248508156
 C       -5.892366481    12.428312110     0.411190940
 C       -0.648125204    -0.914669899    -1.538815391
 C       -0.624529278    -0.914682762     1.547874853
 H        1.132097847     2.664121847     0.772011421
 H        0.209229584     4.910357510     0.761953624
 H       -3.528369695     3.414013257    -0.758616816
 H       -2.647761520     1.147774832    -0.761603756
 H       -3.345725672     5.706522121    -0.377979445
 H       -0.644218633     6.749564524     0.716095942
 H       -4.198805167     7.535849544    -0.428242502
 H       -5.126645206     9.778244079    -0.448618871
 H       -1.370422443    11.307106935     1.134063304
 H       -0.470160233     9.044291098     1.102875518
 H       -3.294255624    14.497615415     1.597989693
 H       -3.116311681    11.802204332     3.165267869
 H       -2.384546448    11.896758476     5.352808768
 H       -1.572237158    13.112685337     7.319219165
 H       -1.673868096    16.795849111     5.050599808
 H       -2.597399965    15.583979191     3.144770420
 H       -0.451347958    17.576672731     8.310921194
 H       -1.711471972    17.688082733     7.067220900
 H       -0.001030012    17.402283191     6.592375024
 H        3.921209608    14.272052061     9.115152084
 H        2.495495674    14.623710730    10.137636929
 H        3.977614070    15.621618681    10.269933273
 H        2.682512266    18.143503167     7.028291996
 H        1.628511415    20.290847330     7.643304664
 H        0.772746736    18.743642069    11.571087752
 H        1.807071336    16.606435932    10.964674080
 H        0.539879944    21.673631457     9.135410967
 H       -0.043104158    20.523480579    11.979969638
 H       -2.726939394    20.591838662    11.391913836
 H       -4.913025059    20.177114298    12.380301051
 H       -4.755776490    23.960573543    14.426501791
 H       -2.567184406    24.412327273    13.474163348
 H       -6.725935403    20.768903872    13.721122797
 H       -6.574455682    23.493624509    15.183189065
 H       -8.544991613    20.303547010    14.471312034
 H      -10.727371003    19.843814056    15.430636521
 H      -10.566861747    23.656335021    17.523063386
 H       -8.387556516    24.079908131    16.529699332
 H        0.164212998    15.703614233     9.191198364
 H       -0.762053591    14.219346075     8.889187642
 H        1.464355672    13.561100615     8.402583009
 H        0.775365189    13.824112135     6.804537231
 H        3.009085646    14.776924817     6.818819529
 H        1.828933893    16.102525715     6.669835021
 H        2.263226104    -1.029521449    -0.044495396
 H        2.276562168     0.476508576     0.906930177
 H        2.259401836     0.546883213    -0.876065145
 H      -13.979125127    19.416972877    17.570269019
 H      -12.266413440    18.926260475    17.545845901
 H      -13.100874461    19.337315710    16.022365324
 H      -12.142900386    22.929074065    19.196917941
 C      -13.751844416    21.647158601    19.885184497
 C      -11.317601764    21.049694730    19.899382191
 H      -14.775360854    22.223254327    16.929254354
 C      -13.557241519    24.008380410    16.715380139
 C      -13.881414730    22.266633188    14.949482123
 H       -0.189111209    24.709938734    13.113423608
 C        0.443142132    22.937027827    14.195784483
 C        1.719330802    24.027428677    12.334088118
 H        0.007733934    24.057259220     9.624525728
 C       -1.983592195    23.391748658     9.058663118
 C       -1.478768144    25.403648847    10.457772700
 H       -3.874972384    14.362297303    -1.201840066
 C       -1.911400675    13.445177971    -1.350437374
 C       -3.974500767    12.638439383    -2.520278522
 H       -6.227973471    11.858771418    -0.502897311
 C       -6.429542203    11.699270700     1.655867642
 C       -6.517460306    13.833589230     0.349153786
 H       -1.773009999    -0.924779874    -1.443922396
 C       -0.292621805    -0.189200761    -2.849261677
 C       -0.172119638    -2.375532316    -1.629949837
 H       -0.149828238    -1.937449566     1.513354018
 C       -0.187990262    -0.229396945     2.855738252
 C       -2.152615281    -1.098173715     1.572734678
 H      -14.571134715    22.233914687    19.450078399
 H      -13.657489649    21.979064263    20.929457770
 H      -14.075915679    20.598739944    19.925191832
 H      -10.316735331    21.177947995    19.462734646
 H      -11.520324326    19.971692011    19.950070330
 H      -11.245820563    21.400075699    20.938939743
 H      -13.563720117    24.280571611    17.778386552
 H      -14.361459100    24.592821845    16.244920133
 H      -12.617950481    24.375237900    16.277992831
 H      -14.122810148    21.228932589    14.685657754
 H      -12.960260699    22.540024225    14.414856090
 H      -14.681494308    22.886341415    14.519723444
 H       -0.523935260    22.717958613    14.670284679
 H        1.019155658    23.519284540    14.929281539
 H        0.976056974    21.984244966    14.072885547
 H        1.712229632    24.661407070    11.438083539
 H        2.289279378    23.118480211    12.093728259
 H        2.308716962    24.568535450    13.088342455
 H       -1.704970734    22.385946792     8.716171324
 H       -2.008683716    24.027673467     8.162602462
 H       -3.019027783    23.337839601     9.425790082
 H       -0.784098032    25.935941307    11.120002459
 H       -2.473018867    25.423831707    10.926373430
 H       -1.559653894    26.013401564     9.545963840
 H       -1.459245374    13.975516748    -0.501194099
 H       -1.637882718    14.013733852    -2.250462147
 H       -1.409640574    12.470779992    -1.439075659
 H       -5.070176228    12.596914657    -2.566851853
 H       -3.595396830    11.614164324    -2.646864065
 H       -3.650677342    13.196109906    -3.410958753
 H       -6.074739423    10.663162303     1.743804170
 H       -7.526663989    11.647414603     1.619805326
 H       -6.175800429    12.214458888     2.594146633
 H       -6.245715750    14.392226027    -0.555390096
 H       -6.258820956    14.454853707     1.218271879
 H       -7.614323867    13.756589312     0.343466096
 H       -0.648645842     0.850563715    -2.880381151
 H       -0.761008699    -0.699847352    -3.702620145
 H        0.786423985    -0.174653397    -3.052573447
 H       -0.453497324    -2.979944149    -0.757986411
 H        0.914228280    -2.464891716    -1.762470198
 H       -0.628684586    -2.864834216    -2.502659247
 H        0.900669876    -0.131853010     2.954940545
 H       -0.523216616    -0.820099886     3.720358216
 H       -0.625426608     0.771781508     2.979618571
 H       -2.536872738    -1.668211634     0.717423247
 H       -2.696960534    -0.143927393     1.613660619
 H       -2.449364301    -1.658049341     2.471603944

