187   

Si        0.000000000     0.000000000     0.000000000
 C        1.864391396     0.000000000     0.000000000
 C       -0.682780933     1.708090070     0.000000000
 C        0.128713376     2.816016169     0.263027649
 C       -0.406631429     4.103901064     0.258721896
 C       -1.768437268     4.308325031     0.023861394
 C       -2.580345860     3.196523039    -0.238818165
 C       -2.043086475     1.913024275    -0.265751567
 C       -2.379509745     5.631353510     0.008228575
 C       -1.726681147     6.788156616     0.212284500
 C       -2.367913543     8.098883944     0.190223526
 C       -3.737532221     8.248517262    -0.050063798
 C       -4.321885208     9.511613914    -0.065164803
 C       -3.541056397    10.661081245     0.118826210
 C       -2.168864494    10.515406234     0.343164875
 C       -1.590770172     9.247134236     0.382507133
Si       -4.390193711    12.286878805     0.084778819
 C       -3.409973416    13.783903713     0.451778304
 C       -2.339483615    13.886568276     1.249130301
 C       -1.628212161    15.149671527     1.469669588
 C       -0.514742673    15.165578911     2.322555367
 C        0.184353030    16.340323483     2.556591498
 C       -0.225268225    17.535428386     1.941032587
 C       -1.332701026    17.527591193     1.085643108
 C       -2.018296064    16.340732024     0.851254038
 N        0.546468563    18.706862654     2.231234644
 C        0.263891545    19.220999147     3.590167315
 C        0.480180934    19.761316509     1.203374446
 C       -1.192106709    19.676509459     3.805314811
 C       -1.575116656    19.556412327     5.289715689
 N       -2.976805651    19.880844958     5.581907380
 C       -3.974752749    18.932560844     5.288805445
 C       -3.690239041    17.668146938     4.738117564
 C       -4.716955278    16.772902603     4.469782284
 C       -6.048436413    17.079979433     4.780921892
 C       -6.325199228    18.327099938     5.351332329
 C       -5.314137466    19.241135339     5.605385672
 C       -3.323393576    21.287742078     5.316922276
 C       -7.099073628    16.105860648     4.480286663
 C       -8.401123228    16.297834107     4.735917455
Si       -9.718714606    15.082598942     4.361765844
 C       -9.017406759    13.382807411     4.468133906
 C       -8.109488777    13.121202367     5.505589146
 C       -7.541834691    11.860077848     5.644922312
 C       -7.868728256    10.823172071     4.758710538
 C       -8.777880754    11.083254712     3.730974682
 C       -9.349836420    12.349649952     3.588461752
 C       -7.235340186     9.525963390     4.964440528
 C       -7.429092653     8.426173376     4.217219127
 C       -6.767011088     7.148196939     4.467931808
 C       -5.866435168     6.969155532     5.521904899
 C       -5.250227177     5.736830472     5.735633403
 C       -5.523014552     4.649432643     4.899637963
 C       -6.424455871     4.826396559     3.841089619
 C       -7.035171580     6.060041312     3.627309975
Si       -4.709648008     3.020420662     5.180660729
 C       -3.601316519     3.056354808     6.681875281
 C       -6.085994394     1.723246481     5.399944593
 C       -3.649946757     2.513179351     3.685337167
 C      -11.081121072    15.257213216     5.681225141
 C      -10.505963018    15.446111424     2.670738993
 C       -5.231300093    12.591289686    -1.593539762
 C       -5.701865469    12.207538275     1.464692078
 C       -0.662973303    -0.919943203    -1.527183345
 C       -0.619982805    -0.882547752     1.571177459
 H        1.197881640     2.715048909     0.468750086
 H        0.247675936     4.952461170     0.450112824
 H       -3.641989396     3.337760321    -0.435213430
 H       -2.719419030     1.085867490    -0.499560723
 H       -3.457268752     5.630005122    -0.185066428
 H       -0.652183360     6.800494286     0.410325921
 H       -4.364730231     7.372846351    -0.208804832
 H       -5.403701918     9.559346349    -0.225613417
 H       -1.510566612    11.377746973     0.481225794
 H       -0.522072623     9.152966824     0.563751010
 H       -3.808449933    14.679177518    -0.060240977
 H       -1.913828408    13.038208408     1.797200054
 H       -0.191737998    14.244648633     2.807316775
 H        1.056854936    16.345062231     3.206994472
 H       -1.666845303    18.441854187     0.603607837
 H       -2.879754182    16.354203763     0.182177967
 H        1.271729618    20.501474533     1.413983404
 H       -0.483386592    20.289449683     1.147514868
 H        0.700682756    19.321514121     0.215138739
 H       -2.442422635    21.934940968     5.456493412
 H       -4.083970732    21.619193790     6.046829535
 H       -3.717995660    21.449254002     4.300518594
 H       -2.670307242    17.385506746     4.491984482
 H       -4.474830205    15.810464770     4.013832855
 H       -7.352079468    18.591595040     5.606443883
 H       -5.561000928    20.195643810     6.059734651
 H       -6.712684673    15.181139007     4.025942227
 H       -8.762121350    17.234751436     5.185455925
 H       -7.812312723    13.891597422     6.227122998
 H       -6.836190930    11.678044122     6.453992521
 H       -9.047910594    10.295514475     3.030907388
 H      -10.059354738    12.494227286     2.770070267
 H       -6.548022996     9.494209082     5.817630233
 H       -8.107765216     8.439381678     3.361596181
 H       -5.633354925     7.797329522     6.189180605
 H       -4.552269689     5.663330878     6.574426932
 H       -6.675289357     4.012873777     3.154780117
 H       -7.728383429     6.176940272     2.797107217
 H        0.529072376    18.411555309     4.308984849
 H        0.966758230    20.057581563     3.793126896
 H       -1.330406362    20.711877632     3.451067870
 H       -1.884153118    19.062393604     3.193175554
 H       -1.366768261    18.527282797     5.666224865
 H       -0.939988029    20.236109421     5.904959955
 H        2.262898447    -1.029466709    -0.042381867
 H        2.274488511     0.477622311     0.907147542
 H        2.260488157     0.544349036    -0.876607892
 H       -3.137179666     2.069453540     6.856874499
 H       -4.168799223     3.320829150     7.591614923
 H       -2.785381501     3.791698488     6.565305635
 H       -6.697185605     1.761780942     4.451655540
 C       -5.557004294     0.287065534     5.564005909
 C       -7.024310261     2.049914288     6.575688780
 H       -3.118098336     1.568128440     4.001505903
 C       -4.470263162     2.191547521     2.423944174
 C       -2.581433110     3.560841231     3.330648650
 H      -11.476721491    16.308823076     5.580280904
 C      -12.252335660    14.282259237     5.469473961
 C      -10.543249798    15.086535746     7.113075145
 H      -11.344388269    14.699436210     2.554152478
 C      -11.113904555    16.859111973     2.590069394
 C       -9.537125680    15.259803504     1.490688357
 H       -5.692176534    13.619715530    -1.519877828
 C       -4.212994983    12.605503722    -2.748042263
 C       -6.358034991    11.601225135    -1.934777302
 H       -6.413963845    11.380493734     1.182541968
 C       -5.072384863    11.855473155     2.823326721
 C       -6.500808910    13.511305152     1.603650207
 H       -1.787700901    -0.915213340    -1.429086942
 C       -0.303708657    -0.209960605    -2.845032236
 C       -0.203925874    -2.386890887    -1.605676403
 H       -0.076360411    -1.870201350     1.600526642
 C       -0.275166445    -0.105145171     2.855249150
 C       -2.132173917    -1.170158208     1.568181962
 H       -4.933594321    -0.044816228     4.723457677
 H       -6.398253236    -0.418495866     5.620823209
 H       -4.977381422     0.147920793     6.486125499
 H       -7.488512256     3.043315809     6.496527135
 H       -6.524886892     1.994390710     7.551879153
 H       -7.851844930     1.327228478     6.609878066
 H       -5.237365244     1.424022960     2.580679332
 H       -3.801390951     1.802808633     1.640035636
 H       -4.956330597     3.079154035     1.996811245
 H       -1.891538809     3.782106010     4.153771376
 H       -3.009303975     4.514949553     2.989540676
 H       -1.958820892     3.196447566     2.496796702
 H      -12.754451672    14.406121575     4.501648614
 H      -13.022456421    14.446736676     6.237078714
 H      -11.953137852    13.227970846     5.558269625
 H       -9.727122764    15.779667027     7.359001024
 H      -10.186278659    14.066387371     7.315380133
 H      -11.343089408    15.281097968     7.841580390
 H      -11.881458682    17.050376871     3.350658166
 H      -11.608053433    17.000650371     1.618076613
 H      -10.357881434    17.653181738     2.667986473
 H       -9.166542654    14.230054207     1.395804001
 H       -8.664302486    15.926980185     1.542040575
 H      -10.045099972    15.491071799     0.543847368
 H       -3.409810800    13.343280691    -2.614508526
 H       -4.714249471    12.863411398    -3.691544418
 H       -3.737747457    11.627448148    -2.911082911
 H       -7.137199902    11.542478704    -1.163949375
 H       -5.988538939    10.583818671    -2.122805788
 H       -6.864195548    11.914799586    -2.859293278
 H       -4.558617050    10.884065193     2.826559789
 H       -5.859507641    11.782058576     3.590844922
 H       -4.362942780    12.613050904     3.182784800
 H       -7.029789163    13.801126096     0.687877000
 H       -5.883874153    14.364504290     1.919362756
 H       -7.269285711    13.383249118     2.383150198
 H       -0.652352731     0.832003384    -2.885362909
 H       -0.777850199    -0.725090397    -3.692567361
 H        0.774922513    -0.205833456    -3.050713551
 H       -0.487080223    -2.978981678    -0.725818399
 H        0.880702949    -2.489682985    -1.742887271
 H       -0.670303950    -2.880106641    -2.470952368
 H        0.798301520     0.088221159     2.975204333
 H       -0.584316767    -0.681575178     3.738837678
 H       -0.796378222     0.862126191     2.920952970
 H       -2.460504209    -1.775232493     0.714098707
 H       -2.739843059    -0.253954850     1.588283723
 H       -2.406794432    -1.738084567     2.469172127

