187   

Si        0.000000000     0.000000000     0.000000000
 C        1.865218211     0.000000000     0.000000000
 C       -0.680822292     1.708660717     0.000000000
 C        0.141612204     2.822925211     0.191662027
 C       -0.395863031     4.110616085     0.187970804
 C       -1.766810384     4.307939136     0.011115274
 C       -2.590498542     3.189491661    -0.176442199
 C       -2.056148806     1.905482449    -0.186844160
 C       -2.382669659     5.628089642    -0.001539073
 C       -1.733403122     6.794567891     0.150552266
 C       -2.396990032     8.094254636     0.130258470
 C       -3.778518062     8.213245823    -0.052293053
 C       -4.390471719     9.463425184    -0.068208082
 C       -3.627272987    10.627332096     0.079181009
 C       -2.243696983    10.514612212     0.255623865
 C       -1.637163334     9.259839096     0.283758430
Si       -4.479314543    12.254585300     0.051710273
 C       -3.292298555    13.608318106     0.365017925
 C       -3.469271609    14.581792920     1.267203316
 C       -2.513666465    15.663346075     1.512756565
 C       -2.828110549    16.619332286     2.491114885
 C       -1.963773057    17.665204597     2.767806405
 C       -0.739521805    17.766820002     2.079614797
 C       -0.419668399    16.814144575     1.102725088
 C       -1.306748166    15.780506175     0.819932962
 N        0.100918159    18.866869694     2.413703507
 C        0.543942315    18.850522677     3.828848629
 C        1.194042492    19.132832031     1.464036622
 C        0.916614255    17.456491429     4.372455316
 C        2.285651269    17.401264649     5.067943287
 N        3.453276305    17.424039265     4.165306165
 C        3.420685027    16.555389516     3.058636948
 C        2.925953643    15.242890479     3.223594791
 C        2.883046053    14.367869137     2.150364584
 C        3.315048949    14.762191720     0.875444081
 C        3.826512097    16.053147176     0.721876634
 C        3.910208047    16.931760792     1.794722254
 C        4.008654758    18.767714200     3.944992828
 C        3.254078821    13.807564712    -0.235085968
 C        3.648295645    14.111703156    -1.478440431
Si        3.628973226    13.031233452    -2.947095852
 C        2.324878837    11.737237702    -3.017333009
 C        0.970940010    12.043324082    -2.838935983
 C        0.001612603    11.040434612    -2.897399981
 C        0.360373687     9.716733128    -3.165358359
 C        1.715675735     9.413059050    -3.349691727
 C        2.685394364    10.406661009    -3.268136130
 C       -0.593374178     8.617640497    -3.242074633
 C       -1.923922752     8.720004544    -3.091891491
 C       -2.837410735     7.584335094    -3.178416618
 C       -2.391154364     6.283576784    -3.427930480
 C       -3.291286972     5.222033190    -3.504145325
 C       -4.660783437     5.440102768    -3.325266248
 C       -5.113109303     6.743919593    -3.083285327
 C       -4.212093902     7.803645936    -3.022318960
Si       -5.853397580     4.043071713    -3.424727156
 C       -4.973861595     2.402930736    -3.285533910
 C       -7.112912733     4.238959562    -2.009717878
 C       -6.783315941     4.116835638    -5.081726171
 C        3.399433234    14.160332793    -4.467806124
 C        5.362240228    12.241238002    -3.059846410
 C       -5.210031866    12.477781191    -1.693214753
 C       -5.885739757    12.307966404     1.331216682
 C       -0.671054282    -0.885327505    -1.546528761
 C       -0.602808969    -0.936017488     1.544163098
 H        1.219781434     2.727416438     0.343266007
 H        0.264699851     4.964047631     0.328577548
 H       -3.662267366     3.327023401    -0.313792248
 H       -2.745681195     1.071687738    -0.345092387
 H       -3.466907633     5.616829565    -0.162357572
 H       -0.651782307     6.825482129     0.298718103
 H       -4.391562889     7.322196220    -0.185069772
 H       -5.474673057     9.488840075    -0.209622072
 H       -1.600428497    11.390550751     0.381958983
 H       -0.559152919     9.189307038     0.418622222
 H       -2.392391017    13.578009594    -0.271374466
 H       -4.357312645    14.642693283     1.910664039
 H       -3.768208415    16.545105514     3.037057870
 H       -2.226024017    18.414466765     3.510757392
 H        0.527126968    16.859443733     0.569767540
 H       -1.038650545    15.047885831     0.056806265
 H        1.651663307    20.105141742     1.711448358
 H        0.775767083    19.224562908     0.445554896
 H        1.980717112    18.360867292     1.452660697
 H        4.060744152    19.310104374     4.904293082
 H        3.434627527    19.377209664     3.228691442
 H        5.048243454    18.673582280     3.579318771
 H        2.585696829    14.911381577     4.201066956
 H        2.498509988    13.357570250     2.300924225
 H        4.184127349    16.385028274    -0.254554952
 H        4.344061400    17.913102310     1.634480515
 H        2.839337821    12.830503444     0.040458403
 H        4.063796638    15.109982811    -1.703834082
 H        0.633149831    13.063054719    -2.629696236
 H       -1.044152667    11.297465175    -2.733215494
 H        2.017738525     8.387604259    -3.554494610
 H        3.724672730    10.098585974    -3.414440633
 H       -0.138481869     7.641050419    -3.442278496
 H       -2.395428916     9.683130971    -2.877857653
 H       -1.328389255     6.083955409    -3.555998955
 H       -2.879505536     4.226937810    -3.695297704
 H       -6.172295910     6.973071132    -2.940869951
 H       -4.579472005     8.812405052    -2.837353502
 H        1.385843455    19.562625505     3.950434497
 H       -0.297772618    19.273607252     4.425564957
 H        0.135350108    17.114114814     5.077629338
 H        0.891535166    16.705381356     3.552972229
 H        2.379430197    18.229842155     5.803182131
 H        2.357667535    16.459086302     5.665093436
 H        2.263688417    -1.029940620    -0.023324123
 H        2.272575323     0.494310502     0.899498448
 H        2.262154556     0.529150643    -0.885148664
 H       -5.692650333     1.565753169    -3.253778918
 H       -4.362665960     2.354347318    -2.364725402
 H       -4.298859755     2.229827375    -4.142296877
 H       -7.638211317     5.219689664    -2.200961898
 C       -8.180906219     3.131220999    -1.984124776
 C       -6.448528855     4.325078513    -0.623223932
 H       -7.457101935     3.212264115    -5.096938726
 C       -7.664771495     5.369540913    -5.235455381
 C       -5.837500822     4.028163376    -6.293510942
 H        4.258854926    14.890511238    -4.441562796
 C        3.463599583    13.392817236    -5.799205618
 C        2.090051519    14.967490989    -4.417645715
 H        5.335313535    11.551215582    -3.951506425
 C        6.485196815    13.268118340    -3.294309308
 C        5.708971044    11.410322045    -1.811148273
 H       -5.942629945    11.630048645    -1.827958682
 C       -5.973547394    13.802641989    -1.859273579
 C       -4.147898675    12.367553748    -2.801898155
 H       -6.213919764    13.388035319     1.371086002
 C       -7.120819677    11.464029041     0.969729781
 C       -5.404552829    11.900193609     2.736006825
 H       -1.791722625    -0.926231494    -1.415424368
 C       -0.379370279    -0.110331523    -2.844568379
 C       -0.160943977    -2.329163677    -1.697227067
 H       -0.092842292    -1.941939153     1.505958507
 C       -0.187581901    -0.239103612     2.853030472
 C       -2.122871480    -1.175705275     1.575748337
 H       -8.750825762     3.053882881    -2.918935343
 H       -8.917584033     3.336535677    -1.194044788
 H       -7.764236482     2.139280896    -1.764517303
 H       -5.702989004     5.129697173    -0.550489330
 H       -5.963852945     3.386427701    -0.323141378
 H       -7.205986968     4.538599632     0.144542853
 H       -8.434325971     5.459097928    -4.458608425
 H       -8.201173854     5.335718294    -6.194947207
 H       -7.082534134     6.302104351    -5.243723560
 H       -5.227025529     3.116073483    -6.304832387
 H       -5.154312259     4.887044488    -6.365032493
 H       -6.419274906     4.019721061    -7.226271615
 H        4.413096794    12.863814393    -5.951999538
 H        3.360616835    14.090643524    -6.642542877
 H        2.653023406    12.657820159    -5.909152869
 H        1.973294303    15.557349409    -3.498112903
 H        1.196835131    14.336161495    -4.527085869
 H        2.059659435    15.684586247    -5.250374220
 H        6.366123655    13.838316276    -4.224344729
 H        7.453166378    12.752290869    -3.374413263
 H        6.588614118    13.986125592    -2.469150903
 H        4.972968848    10.628684192    -1.580199497
 H        5.821086679    12.029434532    -0.908560739
 H        6.669683153    10.896230298    -1.954431261
 H       -6.803791977    13.920868241    -1.151256306
 H       -6.417107323    13.859714498    -2.863483957
 H       -5.325900642    14.685555883    -1.759350082
 H       -3.597701427    11.416359795    -2.781074864
 H       -3.412538167    13.183233056    -2.773760418
 H       -4.628462420    12.420893388    -3.789410175
 H       -7.547732667    11.709835549    -0.010618033
 H       -7.920573406    11.639949012     1.704107323
 H       -6.922720137    10.383808638     0.991780304
 H       -4.557247403    12.497261790     3.101084311
 H       -5.106362031    10.843125321     2.793234773
 H       -6.214081116    12.032360766     3.467174572
 H       -0.770886020     0.917345848    -2.832358346
 H       -0.856228389    -0.612019137    -3.698399737
 H        0.691768704    -0.053451435    -3.078729947
 H       -0.394095371    -2.965251845    -0.833591221
 H        0.922003623    -2.384410816    -1.870451763
 H       -0.635566237    -2.806180138    -2.566984944
 H        0.897265823    -0.103631902     2.950724027
 H       -0.500833036    -0.842437584     3.717055022
 H       -0.658095576     0.746754859     2.979266967
 H       -2.495732584    -1.730625413     0.705837301
 H       -2.699461061    -0.243464323     1.656193679
 H       -2.388886107    -1.776113761     2.458035810

