187   

Si        0.000000000     0.000000000     0.000000000
 C        1.865478131     0.000000000     0.000000000
 C       -0.672897833     1.713605294     0.000000000
 C        0.146858589     2.810271484     0.284665370
 C       -0.373059300     4.104441995     0.281996385
 C       -1.723132695     4.331740277     0.002669027
 C       -2.544264079     3.231501966    -0.278460186
 C       -2.027609381     1.938771391    -0.279863841
 C       -2.309533387     5.667923323    -0.011075769
 C       -1.632489925     6.801924902     0.237498995
 C       -2.215549901     8.139454868     0.224611380
 C       -3.565638837     8.370690869    -0.054377089
 C       -4.080642581     9.666285116    -0.055833646
 C       -3.250543789    10.760421782     0.210508537
 C       -1.897142592    10.532944966     0.489254032
 C       -1.388867353     9.236505359     0.500313316
Si       -3.918057436    12.474692433     0.211524655
 C       -2.557136482    13.660748217    -0.070204905
 C       -2.294338336    14.749499488     0.664416957
 C       -1.188190237    15.670432039     0.395885707
 C       -1.009387632    16.780587660     1.234723466
 C        0.021753644    17.680197049     1.022143747
 C        0.892113832    17.521537282    -0.078097734
 C        0.714048134    16.409115957    -0.919849680
 C       -0.298491369    15.492087559    -0.666399476
 N        1.932169694    18.452184673    -0.269183495
 C        1.589576896    19.868425101    -0.040744099
 C        2.795029431    18.254030992    -1.444946523
 C        0.367802355    20.350953047    -0.849949776
 C        0.433688994    21.860623937    -1.145040262
 N        0.917532093    22.200044685    -2.503567057
 C        2.198288380    21.657104363    -2.800847022
 C        3.287923856    22.109870364    -2.030451735
 C        4.560812463    21.619494204    -2.270830235
 C        4.795379431    20.692413273    -3.298396399
 C        3.715375304    20.266529883    -4.074359613
 C        2.430523642    20.746081304    -3.840545887
 C       -0.115850085    21.990555144    -3.533430583
 C        6.160466196    20.205004388    -3.510958674
 C        6.498115419    19.322161417    -4.459337078
Si        8.179257573    18.676271769    -4.774738196
 C        8.581343108    18.829745475    -6.561809712
 C        7.893980595    19.744916801    -7.365711281
 C        8.197876931    19.862483948    -8.721530891
 C        9.199320189    19.077836517    -9.299757885
 C        9.890289541    18.166152225    -8.490183039
 C        9.586965541    18.042832211    -7.136923496
 C        9.551354444    19.166638039   -10.713077816
 C        8.969344819    19.995558963   -11.596287001
 C        9.321831908    20.083896097   -13.009515557
 C       10.320360689    19.296226680   -13.587927854
 C       10.625191242    19.413203738   -14.944006821
 C        9.940145837    20.326918419   -15.750908129
 C        8.938191608    21.118490120   -15.172938857
 C        8.632472939    20.995556652   -13.820500190
Si       10.330261124    20.493697846   -17.542322919
 C       11.914698167    19.614215248   -17.984711046
 C        8.912682303    19.751815036   -18.573427833
 C       10.470536067    22.347663646   -17.950413640
 C        9.482174217    19.614888860    -3.757209924
 C        8.210843182    16.842374405    -4.267358806
 C       -5.186778337    12.666053619    -1.193950343
 C       -4.791282862    12.800214238     1.868816003
 C       -0.658023446    -0.900535099    -1.542531163
 C       -0.615066389    -0.923326904     1.546465491
 H        1.210425476     2.695885563     0.511694647
 H        0.287505427     4.941080985     0.502588964
 H       -3.598679864     3.386363407    -0.499051360
 H       -2.715879987     1.120288713    -0.508660675
 H       -3.377594181     5.696862675    -0.244946466
 H       -0.564090036     6.771736687     0.471686735
 H       -4.228873383     7.535774625    -0.271640441
 H       -5.144924179     9.785162011    -0.276059649
 H       -1.203935438    11.352488038     0.706781812
 H       -0.335475492     9.077260751     0.723350369
 H       -1.937678186    13.405497727    -0.946721071
 H       -2.894407314    15.037092959     1.537380967
 H       -1.684760207    16.934111124     2.076627729
 H        0.160283546    18.510788898     1.708430793
 H        1.363060697    16.249949430    -1.775416312
 H       -0.404841800    14.628855035    -1.325509040
 H        3.619278238    18.991698498    -1.428537039
 H        2.268650355    18.363360854    -2.407041544
 H        3.261143657    17.254285740    -1.394532764
 H       -0.986799761    22.625128051    -3.291646289
 H       -0.461267401    20.949332655    -3.628154905
 H        0.266569847    22.331004669    -4.511700988
 H        3.123371016    22.854175293    -1.254050120
 H        5.393182073    21.971284271    -1.660704259
 H        3.872889881    19.551087803    -4.883278634
 H        1.612341336    20.391824917    -4.460904313
 H        6.889068365    20.639895059    -2.814756504
 H        5.738763817    18.900212685    -5.139776873
 H        7.103712940    20.389345681    -6.966960163
 H        7.645810190    20.577842868    -9.328512177
 H       10.673516967    17.545755931    -8.921498565
 H       10.157699649    17.313871398    -6.555069276
 H       10.351431631    18.490415146   -11.028228271
 H        8.169126309    20.671871193   -11.281173714
 H       10.871087019    18.579820386   -12.981097616
 H       11.415530188    18.769200309   -15.339503018
 H        8.369938762    21.850000023   -15.754465801
 H        7.849806588    21.617677472   -13.390287457
 H        1.411670030    20.010471035     1.048967195
 H        2.486395325    20.484754554    -0.282515754
 H        0.296889701    19.780430715    -1.796411901
 H       -0.561350659    20.105384052    -0.303247781
 H       -0.572130193    22.320137578    -1.018342355
 H        1.092522928    22.378870819    -0.412783132
 H        2.263676029    -1.029435714    -0.044566138
 H        2.275113676     0.475661611     0.908270513
 H        2.260957203     0.546669719    -0.875360692
 H       12.165168586    19.758223767   -19.050989168
 H       11.843795777    18.527338994   -17.803918610
 H       12.762183917    20.001024772   -17.390044588
 H        9.246879294    19.828135338   -19.648547132
 C        8.666898545    18.265670617   -18.254406025
 C        7.581786491    20.512136473   -18.433752466
 H        9.466906647    22.797063537   -17.694886977
 C       11.535509965    23.059815910   -17.096827104
 C       10.748031315    22.629786892   -19.437682433
 H        9.130604267    19.570722086    -2.685759667
 C       10.882134116    18.979109249    -3.824712305
 C        9.591332038    21.094850423    -4.167374822
 H        9.269350110    16.490815666    -4.438078557
 C        7.868772198    16.623010363    -2.783306706
 C        7.277608104    15.975842046    -5.131457502
 H       -6.018406054    11.939064240    -0.963892796
 C       -5.795198032    14.077600295    -1.266903147
 C       -4.602395154    12.299384388    -2.569775146
 H       -5.091627217    13.887892032     1.852555764
 C       -6.065429622    11.958403200     2.061912297
 C       -3.862886643    12.575582554     3.076383545
 H       -1.782808445    -0.897169178    -1.445925812
 C       -0.296182671    -0.172035703    -2.849544276
 C       -0.198539826    -2.366051478    -1.641418785
 H       -0.125873785    -1.939492354     1.509465435
 C       -0.186236704    -0.234482317     2.855075130
 C       -2.140052688    -1.130316166     1.575153125
 H        9.550170278    17.633334885   -18.411399135
 H        7.881641617    17.864309250   -18.910981642
 H        8.319372469    18.101815090   -17.224159893
 H        7.651142690    21.569326566   -18.719461579
 H        7.167174224    20.462932317   -17.417064295
 H        6.823939042    20.065873157   -19.094173968
 H       11.368033959    22.951645512   -16.015582183
 H       11.523438839    24.139685910   -17.302516625
 H       12.556514990    22.716249277   -17.309347957
 H        9.984429604    22.215403093   -20.108531496
 H       11.724815865    22.254277584   -19.770215178
 H       10.759006942    23.714648064   -19.618041197
 H       10.911459448    17.947867583    -3.450527602
 H       11.584336043    19.550793405    -3.200184482
 H       11.305646672    18.982030698    -4.839101068
 H        8.638945496    21.639334804    -4.111325138
 H        9.983751816    21.225975501    -5.186463725
 H       10.288033410    21.621323948    -3.499827724
 H        8.550346591    17.143229006    -2.097916657
 H        7.941284699    15.554355548    -2.534704227
 H        6.843524786    16.928854789    -2.529778439
 H        7.489000458    16.047456022    -6.207816556
 H        6.214881795    16.212566938    -4.984954122
 H        7.396382098    14.915313375    -4.866813999
 H       -6.309387891    14.378303423    -0.345049128
 H       -6.547375898    14.122566358    -2.067262059
 H       -5.050871114    14.852430086    -1.500476801
 H       -4.184305147    11.283529043    -2.608708684
 H       -3.818185342    12.994103798    -2.900630996
 H       -5.389933715    12.336263080    -3.335688960
 H       -6.830448506    12.144769311     1.297623723
 H       -6.532657017    12.200311654     3.027632267
 H       -5.866067067    10.877614813     2.082647801
 H       -2.939822415    13.170220735     3.038692083
 H       -3.569319588    11.522612916     3.196691906
 H       -4.376244791    12.860006730     4.005507071
 H       -0.642285107     0.871251380    -2.874888983
 H       -0.770966381    -0.673519884    -3.704823508
 H        0.782652514    -0.167398923    -3.053984489
 H       -0.488970052    -2.972228910    -0.773650047
 H        0.887058918    -2.466905148    -1.771827973
 H       -0.658484532    -2.844900723    -2.518129011
 H        0.901085577    -0.121391315     2.953085067
 H       -0.511870646    -0.831297598     3.719121800
 H       -0.637023329     0.760481415     2.981331411
 H       -2.519861983    -1.693543641     0.713454731
 H       -2.697946795    -0.185067271     1.633766825
 H       -2.423521335    -1.707841875     2.467188698

