187   

Si        0.000000000     0.000000000     0.000000000
 C        1.865170022     0.000000000     0.000000000
 C       -0.676867418     1.711997375     0.000000000
 C        0.112306043     2.797369923    -0.394063258
 C       -0.408350544     4.091190602    -0.391112549
 C       -1.728283976     4.329311248     0.000788080
 C       -2.519319761     3.240272774     0.390381716
 C       -2.002787165     1.947548197     0.387700682
 C       -2.315181538     5.664781494     0.019653069
 C       -1.668667202     6.789987450    -0.329241309
 C       -2.257987855     8.124111567    -0.309431521
 C       -3.578763444     8.356986127     0.083401329
 C       -4.103547413     9.648837269     0.087920497
 C       -3.329864154    10.732174743    -0.339987556
 C       -2.006585850    10.500582789    -0.740437283
 C       -1.474486498     9.214308574    -0.711753667
Si       -3.986963310    12.451664865    -0.348698185
 C       -3.310710369    13.430182064    -1.738119717
 C       -2.936364158    12.934687303    -2.925415109
 C       -2.398043105    13.747960074    -4.017598502
 C       -2.037170864    13.126296633    -5.220219056
 C       -1.523529920    13.858027141    -6.280173300
 C       -1.268139161    15.236501104    -6.146054468
 C       -1.617107327    15.860207936    -4.930536938
 C       -2.194928116    15.126663026    -3.903274113
 N       -0.747038815    16.003062452    -7.205630476
 C       -0.157092867    15.307516523    -8.360103884
 C       -0.001755203    17.216262480    -6.822583973
 C        1.143236867    14.547151906    -8.044076140
 C        1.788418152    13.911333143    -9.290166237
 N        0.933583482    13.001563597   -10.089454786
 C        0.033356750    12.221546793    -9.318784265
 C        0.576404035    11.383752848    -8.324127354
 C       -0.258007198    10.600840395    -7.542951629
 C       -1.647471837    10.612508856    -7.736610550
 C       -2.176705613    11.422994313    -8.743715667
 C       -1.351481166    12.205729731    -9.543079131
 C        0.367006853    13.650036908   -11.284634311
 C       -2.492726594     9.769443902    -6.888499983
 C       -3.825673668     9.716930449    -7.001900160
Si       -4.964397740     8.701627973    -5.996203350
 C       -6.285421080     9.839397823    -5.403846535
 C       -6.005041216    11.208200278    -5.309551773
 C       -6.978828137    12.100111885    -4.865628220
 C       -8.246111093    11.643657511    -4.490901194
 C       -8.521339390    10.273004650    -4.580031938
 C       -7.553150819     9.379018447    -5.032969385
 C       -9.291603974    12.546366348    -4.021177460
 C       -9.143281811    13.876116703    -3.894938735
 C      -10.178861830    14.790114422    -3.427042698
 C      -11.454929790    14.358870689    -3.056555008
 C      -12.414759808    15.269395983    -2.614498264
 C      -12.113643284    16.631891257    -2.523254087
 C      -10.832814783    17.066467494    -2.891081304
 C       -9.879577046    16.156463608    -3.338757016
Si      -13.368179426    17.846803265    -1.942005870
 C      -14.835470863    16.998837270    -1.162281932
 C      -12.534312847    19.008091282    -0.684808908
 C      -13.975313008    18.886861616    -3.416096301
 C       -5.694939264     7.297625780    -7.040625890
 C       -4.069637345     7.970693133    -4.488703797
 C       -5.885601173    12.423694196    -0.497638784
 C       -3.516377351    13.308806225     1.281144926
 C       -0.622962905    -0.913964687    -1.548878607
 C       -0.652043807    -0.911721269     1.538958893
 H        1.152038476     2.673669914    -0.709233744
 H        0.228040845     4.919104926    -0.698256839
 H       -3.550253262     3.403665085     0.698821254
 H       -2.667736831     1.137710419     0.700663060
 H       -3.357669490     5.701404513     0.349501605
 H       -0.625872409     6.754226518    -0.657378780
 H       -4.208874354     7.528058129     0.399659447
 H       -5.135252278     9.771477354     0.430469221
 H       -1.354456606    11.311777828    -1.082353544
 H       -0.440934648     9.055675576    -1.012523108
 H       -3.245256155    14.509290264    -1.529043594
 H       -3.002534737    11.864930611    -3.171747924
 H       -2.184023943    12.049535367    -5.344472940
 H       -1.302160946    13.341790673    -7.212080390
 H       -1.459053446    16.924342455    -4.792195029
 H       -2.478112254    15.642624759    -2.985068925
 H        0.521827108    17.643558513    -7.692383949
 H        0.740128907    17.036408916    -6.027528342
 H       -0.720587872    17.980218708    -6.472841979
 H        1.194108093    14.048606372   -11.897867005
 H       -0.336362530    14.469121004   -11.071043987
 H       -0.145995677    12.891089749   -11.902506120
 H        1.653055445    11.355597665    -8.175513534
 H        0.175001940     9.964426772    -6.770749979
 H       -3.254417982    11.447871381    -8.916871337
 H       -1.798693836    12.817123215   -10.321027853
 H       -1.929507311     9.182659710    -6.152247346
 H       -4.353329569    10.315726503    -7.765183107
 H       -5.026080968    11.625799526    -5.574964952
 H       -6.738180699    13.161256034    -4.808523230
 H       -9.502045295     9.898928593    -4.294663550
 H       -7.823049674     8.321618978    -5.084537319
 H      -10.238938332    12.062795178    -3.769207714
 H       -8.192109384    14.355623359    -4.148806222
 H      -11.712588812    13.302991651    -3.113730311
 H      -13.396861312    14.873414763    -2.342218575
 H      -10.541074466    18.119234738    -2.839342515
 H       -8.890701807    16.512841590    -3.622369552
 H       -0.928252257    14.611255320    -8.767695193
 H        0.022059173    16.060792616    -9.160137537
 H        1.872605292    15.229169761    -7.568539994
 H        0.938640107    13.765523568    -7.283031331
 H        2.189359048    14.707795609    -9.953316030
 H        2.670472860    13.305970850    -8.967847040
 H        2.263190030    -1.028714192     0.060705831
 H        2.259926740     0.560537718     0.867070746
 H        2.276028922     0.461782579    -0.914713809
 H      -15.562174228    17.735581622    -0.775813343
 H      -14.521414693    16.365571097    -0.312751466
 H      -15.367171491    16.354873565    -1.884457147
 H      -11.699778491    19.521936590    -1.245088364
 C      -13.473905456    20.096893884    -0.136912540
 C      -11.907741422    18.244809677     0.496240563
 H      -14.768089323    19.572710934    -2.998570931
 C      -12.877283708    19.759287351    -4.050436612
 C      -14.619492183    18.026962168    -4.518860746
 H       -6.383159147     6.725548803    -6.352397419
 C       -6.531353631     7.813059389    -8.225698133
 C       -4.629780656     6.318972497    -7.566206477
 H       -3.213254167     7.359012793    -4.895579293
 C       -3.491369555     9.067833232    -3.580064108
 C       -4.953351382     7.042626110    -3.636957799
 H       -6.273654611    12.012051130     0.477657643
 C       -6.494344401    13.822723481    -0.702208355
 C       -6.366860489    11.505167779    -1.631999848
 H       -3.981099537    14.335943818     1.239357424
 C       -4.064690596    12.587756127     2.525061622
 C       -1.993827011    13.478748104     1.433433697
 H       -0.142286834    -1.934182575    -1.517595558
 C       -2.150018193    -1.105968950    -1.572518571
 C       -0.192211872    -0.223117043    -2.855769311
 H       -1.776639382    -0.919643178     1.441464336
 C       -0.178578309    -2.373192840     1.633070750
 C       -0.297770877    -0.184420210     2.848690297
 H      -13.907156752    20.731760742    -0.920553695
 H      -12.918022644    20.770432972     0.531597361
 H      -14.301362680    19.688613295     0.458338733
 H      -11.180049131    17.482476370     0.182847131
 H      -12.653888625    17.748375422     1.130636294
 H      -11.361323010    18.941229534     1.148116480
 H      -12.416916462    20.462785986    -3.345343737
 H      -13.304551510    20.371119261    -4.858346733
 H      -12.073793906    19.165990358    -4.509478398
 H      -15.472791919    17.433141821    -4.166908921
 H      -13.906876293    17.336765745    -4.993172249
 H      -15.004465565    18.671022674    -5.322476890
 H       -7.343888882     8.489121768    -7.924532784
 H       -7.010378066     6.970166447    -8.743745913
 H       -5.927610607     8.334922042    -8.980729920
 H       -4.043267440     5.844230009    -6.768565646
 H       -3.923160307     6.789513617    -8.264394978
 H       -5.110845083     5.500994914    -8.121159388
 H       -2.796549463     9.747569384    -4.089334492
 H       -2.923489183     8.610379584    -2.754488103
 H       -4.269964170     9.680468501    -3.100354653
 H       -5.330387433     6.171888019    -4.186583832
 H       -5.813362205     7.560722611    -3.190581254
 H       -4.368394593     6.643012937    -2.793956274
 H       -6.249843832    14.529788893     0.099268343
 H       -7.592489972    13.753458848    -0.725802502
 H       -6.198834912    14.279249073    -1.657617406
 H       -6.117313747    10.447016801    -1.483358232
 H       -5.973168531    11.795141142    -2.618799610
 H       -7.462553659    11.550880580    -1.722619757
 H       -5.159770340    12.514970414     2.539102371
 H       -3.782845808    13.138218663     3.434196179
 H       -3.660449653    11.572457305     2.644757263
 H       -1.531706852    14.034303832     0.606104952
 H       -1.465063626    12.519246689     1.525665112
 H       -1.766630481    14.043184918     2.348751188
 H       -2.530271082    -1.679276547    -0.717586611
 H       -2.444078102    -1.666466048    -2.471900169
 H       -2.699583112    -0.154772858    -1.612130152
 H        0.895727459    -0.118971251    -2.956445243
 H       -0.635399903     0.775868724    -2.976536314
 H       -0.525194651    -0.813566478    -3.721406097
 H       -0.456308786    -2.977524986     0.759899603
 H       -0.640217941    -2.861611062     2.503622101
 H        0.907015982    -2.463739186     1.771068184
 H       -0.654895966     0.855021883     2.878278697
 H        0.781119904    -0.168791587     3.052774156
 H       -0.766479291    -0.694609298     3.702219355

