187   

Si        0.000000000     0.000000000     0.000000000
 C        1.864955940     0.000000000     0.000000000
 C       -0.678008008     1.710572019     0.000000000
 C        0.110113640     2.799953223     0.384788090
 C       -0.414965040     4.092080000     0.380710615
 C       -1.738467900     4.326044499    -0.002598510
 C       -2.526012659     3.231867750    -0.382834956
 C       -2.006544711     1.940757783    -0.380329583
 C       -2.327604382     5.661290964    -0.021304625
 C       -1.674442507     6.784624342     0.320729898
 C       -2.249156694     8.125602546     0.307222636
 C       -3.570195419     8.381590720    -0.072601357
 C       -4.070252030     9.682817482    -0.067763235
 C       -3.252364026    10.757209746     0.304278949
 C       -1.928901704    10.504782699     0.682385397
 C       -1.436655335     9.201937508     0.687052289
Si       -3.917682514    12.466433424     0.308101151
 C       -2.609776054    13.742452128     0.263382862
 C       -2.524580176    14.792134450     1.090238924
 C       -1.461152610    15.795951793     1.024963551
 C       -1.475588416    16.854478586     1.946264657
 C       -0.491408382    17.828454383     1.924453865
 C        0.520565740    17.788103573     0.945574522
 C        0.537083604    16.735659771     0.021508367
 C       -0.438295217    15.745269831     0.076329839
 N        1.502833294    18.820689024     0.979350152
 C        0.908196679    20.162391496     0.773531125
 C        2.689479130    18.601425471     0.133851904
 C        0.080904801    20.288381119    -0.522536561
 C       -1.117819905    21.229525674    -0.309062241
 N       -2.166170850    21.201970632    -1.343524839
 C       -3.243468992    20.280658956    -1.120357481
 C       -3.116682804    19.009843764    -0.549278486
 C       -4.241519406    18.206601219    -0.385006001
 C       -5.512804768    18.662553091    -0.755955774
 C       -5.629949399    19.940270744    -1.317355436
 C       -4.513166250    20.741728396    -1.504324883
 C       -1.651763548    21.121663136    -2.723657216
 C       -6.677559928    17.789105184    -0.568834261
 C       -7.928103066    18.143206468    -0.895198645
Si       -9.426230373    17.112688992    -0.692446501
 C       -9.067051812    15.315378943    -0.832221638
 C       -8.471522471    14.831420959    -2.005237872
 C       -8.185970864    13.476170276    -2.144128580
 C       -8.514120282    12.565944489    -1.130832204
 C       -9.122222398    13.048799017     0.030615334
 C       -9.396901255    14.407841338     0.178549058
 C       -8.193834807    11.155816065    -1.324662211
 C       -8.443238550    10.187909267    -0.426748307
 C       -8.124909917     8.777721633    -0.616257624
 C       -7.516816457     8.291480576    -1.776461694
 C       -7.230996358     6.933787378    -1.913528287
 C       -7.539138150     6.033617564    -0.887339288
 C       -8.146280891     6.520573586     0.276750111
 C       -8.437168130     7.875513113     0.408838439
Si       -7.159280316     4.242392592    -1.074393596
 C       -5.751867127     4.008525222    -2.279785007
 C       -6.641885968     3.453655967     0.582759683
 C       -8.732151846     3.380431724    -1.704655140
 C      -10.158201273    17.505199444     1.023535003
 C      -10.701609576    17.617283017    -2.010336486
 C       -4.928954671    12.787294831    -1.273959118
 C       -5.038297782    12.698631369     1.826270933
 C       -0.653216174    -0.909274574    -1.540374736
 C       -0.628439447    -0.914224555     1.546666290
 H        1.152211545     2.680777466     0.693323056
 H        0.221691448     4.922075156     0.681862168
 H       -3.560084684     3.387009168    -0.686673329
 H       -2.671697857     1.128527991    -0.686200804
 H       -3.370634462     5.703481000    -0.350151788
 H       -0.629896299     6.741390991     0.644480953
 H       -4.224706050     7.562876081    -0.369257503
 H       -5.115973339     9.821535895    -0.363875614
 H       -1.248525339    11.306754181     0.984485273
 H       -0.406555665     9.022155923     0.988241367
 H       -1.869623610    13.584456024    -0.538347918
 H       -3.249755398    14.981543936     1.892453576
 H       -2.264247054    16.907842448     2.697367418
 H       -0.493077223    18.625049763     2.665407382
 H        1.303744582    16.680425035    -0.745280772
 H       -0.403115866    14.929119518    -0.646561747
 H        3.445702597    19.365875367     0.384240341
 H        2.491807883    18.648630584    -0.947829969
 H        3.134431094    17.619960054     0.374606817
 H       -0.906642981    21.918922103    -2.878605067
 H       -2.484652126    21.302217129    -3.426008405
 H       -1.195565535    20.151829015    -2.976293941
 H       -2.142149621    18.636867971    -0.236802918
 H       -4.121791717    17.208380210     0.041607822
 H       -6.607887388    20.318468430    -1.614016526
 H       -4.610028036    21.735393497    -1.938557778
 H       -6.425031848    16.806654419    -0.147536172
 H       -8.141809164    19.142636557    -1.309205467
 H       -8.193376227    15.494506855    -2.831198033
 H       -7.710959845    13.119413715    -3.056887736
 H       -9.393526743    12.364330107     0.832301888
 H       -9.875845093    14.722807442     1.109681906
 H       -7.721288939    10.919562601    -2.283045242
 H       -8.922364591    10.423410328     0.528478664
 H       -7.260423975     8.972023603    -2.586412054
 H       -6.754723966     6.611861071    -2.844122553
 H       -8.409144069     5.863881279     1.111220393
 H       -8.908917856     8.234591269     1.321405875
 H        0.277822938    20.381088808     1.666193562
 H        1.723592120    20.916331783     0.789258039
 H        0.716279660    20.652714738    -1.347701108
 H       -0.279881469    19.293680156    -0.850506925
 H       -1.597536249    21.027467385     0.676319852
 H       -0.757260359    22.285439645    -0.269006551
 H        2.263201324    -1.029261820    -0.047308422
 H        2.275494351     0.474024902     0.908703236
 H        2.259261032     0.549574598    -0.874211534
 H       -5.418841739     2.955935044    -2.311486022
 H       -4.880172367     4.634803898    -2.015503616
 H       -6.057170117     4.283857958    -3.305337366
 H       -6.118051046     2.493354378     0.300639314
 C       -5.648094743     4.318673154     1.377880356
 C       -7.817070685     3.083355337     1.506344635
 H       -9.497692810     3.502419469    -0.883685047
 C       -9.302701827     4.033126945    -2.976727844
 C       -8.541331376     1.874516316    -1.959615048
 H      -11.005192711    16.775629176     1.174321779
 C       -9.135296556    17.303184171     2.156673651
 C      -10.736030832    18.927666681     1.131455605
 H      -10.925701644    18.706380620    -1.814115847
 C      -10.172379580    17.498738212    -3.450410655
 C      -12.019140499    16.830455143    -1.897372821
 H       -5.931072655    12.295714783    -1.110517122
 C       -5.158890962    14.289882308    -1.514334092
 C       -4.294926477    12.169869766    -2.532187098
 H       -5.414749384    13.761568393     1.777175587
 C       -6.258525258    11.763247830     1.831389750
 C       -4.276248851    12.512778589     3.151811828
 H       -1.777331888    -0.922378363    -1.438997706
 C       -0.307287485    -0.175581641    -2.848857826
 C       -0.173652394    -2.368128451    -1.641778069
 H       -0.161827427    -1.940544060     1.508306968
 C       -0.184346903    -0.235715962     2.855443421
 C       -2.158144951    -1.085506757     1.574681798
 H       -4.723176829     4.543106899     0.828954618
 H       -5.333883092     3.791911777     2.290859142
 H       -6.073721251     5.276801671     1.706795636
 H       -8.533723033     2.391875997     1.045661128
 H       -8.379820923     3.954851870     1.864369555
 H       -7.438719404     2.574997022     2.405823009
 H       -9.517539205     5.104429809    -2.855466644
 H      -10.257576914     3.559214891    -3.246475767
 H       -8.646005077     3.921811886    -3.849329632
 H       -8.186246581     1.323144438    -1.079308004
 H       -7.848146216     1.666097287    -2.785604300
 H       -9.501077562     1.417436646    -2.241454788
 H       -8.685452533    16.301393842     2.176001768
 H       -9.621572103    17.441930317     3.132367887
 H       -8.310736180    18.030684604     2.116696547
 H      -11.550119831    19.122396262     0.421697713
 H       -9.976930687    19.710496418     0.996560278
 H      -11.161895589    19.084288906     2.133350225
 H       -9.225291957    18.029925009    -3.615746681
 H      -10.896583314    17.935692806    -4.153062130
 H      -10.032738955    16.455889438    -3.767693119
 H      -12.513138075    16.943036788    -0.923580515
 H      -11.892929474    15.754098314    -2.082838559
 H      -12.737464052    17.188073307    -2.649255072
 H       -5.753489501    14.764270047    -0.721048235
 H       -5.721781475    14.443866407    -2.446127505
 H       -4.227526800    14.862710328    -1.626974417
 H       -4.131036945    11.086200503    -2.451371067
 H       -3.333111424    12.629461168    -2.796190520
 H       -4.955447011    12.318402373    -3.397762383
 H       -6.909578881    11.899413635     0.956490516
 H       -6.883140094    11.962471115     2.713191040
 H       -5.985855196    10.699478698     1.881960273
 H       -3.398553818    13.164283485     3.254981251
 H       -3.934552657    11.478434330     3.302367953
 H       -4.934927013    12.744359875     4.000341187
 H       -0.667858140     0.862814095    -2.872356983
 H       -0.777654728    -0.683930473    -3.702402418
 H        0.770697993    -0.155397323    -3.057238203
 H       -0.447904975    -2.977686036    -0.771145082
 H        0.912265809    -2.453190891    -1.781087329
 H       -0.633793236    -2.854508605    -2.514176789
 H        0.905258518    -0.146259684     2.952740920
 H       -0.522178831    -0.826114443     3.719210745
 H       -0.613883402     0.768517079     2.982590339
 H       -2.549316489    -1.646347654     0.716561455
 H       -2.694043372    -0.126794972     1.624714603
 H       -2.456063085    -1.649896353     2.470278769

