187   

Si        0.000000000     0.000000000     0.000000000
 C        1.865362433     0.000000000     0.000000000
 C       -0.678772702     1.710915549     0.000000000
 C        0.130930096     2.809352236     0.305521954
 C       -0.394960739     4.101209013     0.302241854
 C       -1.740670104     4.324267760    -0.000374333
 C       -2.551672219     3.222051698    -0.302575917
 C       -2.029507704     1.931674271    -0.301801847
 C       -2.334299107     5.657069573    -0.016050745
 C       -1.670022990     6.794058756     0.252355440
 C       -2.263858462     8.126881985     0.236631377
 C       -3.610483017     8.347657856    -0.066422978
 C       -4.137428901     9.638515526    -0.070052381
 C       -3.323198022    10.738027571     0.219361446
 C       -1.973038201    10.520909188     0.523318154
 C       -1.452942823     9.229411287     0.536244235
Si       -4.000859984    12.449052540     0.219368088
 C       -2.629946308    13.623481792    -0.064722772
 C       -2.349614401    14.714012549     0.659592844
 C       -1.226735807    15.610526728     0.366701986
 C       -1.018132421    16.728792565     1.187936680
 C        0.031653904    17.601992034     0.946352937
 C        0.903179942    17.367201298    -0.129191821
 C        0.700671051    16.258126573    -0.956731388
 C       -0.362133259    15.395188523    -0.709278671
 N        1.962653901    18.318540942    -0.309110286
 C        3.109490746    18.032323736     0.580008094
 C        2.360057583    18.523714302    -1.713751452
 C        3.915948291    16.771139766     0.209079242
 C        4.663346488    16.181197127     1.419922268
 N        3.980714026    15.046210591     2.073621554
 C        2.764662191    15.340445096     2.730369696
 C        2.714493480    16.455600160     3.592863145
 C        1.539984432    16.775014740     4.253859133
 C        0.404540034    15.959472836     4.146041214
 C        0.469847417    14.831904860     3.323311529
 C        1.629455590    14.518873837     2.624640883
 C        3.997105645    13.827472259     1.246082165
 C       -0.809896817    16.345071279     4.866257330
 C       -1.950701150    15.644812074     4.837063265
Si       -3.494331848    16.077534712     5.714379535
 C       -4.853713704    15.991317163     4.476541176
 C       -4.621901854    16.497743998     3.191519303
 C       -5.621538137    16.453585378     2.222714969
 C       -6.878218747    15.916975587     2.519383406
 C       -7.109606264    15.417087709     3.806993308
 C       -6.108893527    15.452305934     4.776094120
 C       -7.952121949    15.851792686     1.534463126
 C       -7.849434625    16.297808224     0.271008632
 C       -8.914563324    16.238810021    -0.723312570
 C      -10.173463245    15.699428448    -0.448687545
 C      -11.162926116    15.663656100    -1.431134100
 C      -10.912172804    16.166426524    -2.711580606
 C       -9.648794205    16.705829405    -2.990054586
 C       -8.663218452    16.739279968    -2.008025134
Si      -12.206129340    16.127373997    -4.020302646
 C      -13.883275699    15.711843679    -3.317889815
 C      -12.249653470    17.831340108    -4.867120007
 C      -11.745477275    14.815201366    -5.320328550
 C       -3.768225297    14.868439787     7.153756679
 C       -3.422002171    17.843809069     6.415537269
 C       -5.269683143    12.631500819    -1.184363223
 C       -4.852215846    12.788773317     1.880663334
 C       -0.654975150    -0.903556524    -1.542445605
 C       -0.615383193    -0.922865395     1.546842133
 H        1.190827333     2.697990516     0.550252051
 H        0.257375359     4.939399198     0.540306840
 H       -3.602750865     3.373523437    -0.540962538
 H       -2.710516496     1.111589461    -0.546076024
 H       -3.398121076     5.681060426    -0.269628731
 H       -0.606292583     6.770428634     0.506602373
 H       -4.261832632     7.508001366    -0.301031193
 H       -5.198830027     9.749422409    -0.308725060
 H       -1.292039779    11.345170173     0.761391872
 H       -0.403291257     9.077704841     0.779838598
 H       -2.017426892    13.354594885    -0.942756536
 H       -2.938487076    15.019535581     1.535356912
 H       -1.677680827    16.910867594     2.038150524
 H        0.191271187    18.470766739     1.583399855
 H        1.364221448    16.067134011    -1.794576797
 H       -0.508402956    14.537340073    -1.366217686
 H        3.014764152    19.411057669    -1.762176442
 H        1.460163653    18.745021387    -2.313808141
 H        2.887715557    17.676795246    -2.175605404
 H        5.018312778    13.656807527     0.865506878
 H        3.306898390    13.858203809     0.387574933
 H        3.741096525    12.957850045     1.878556618
 H        3.599231664    17.069375569     3.739277601
 H        1.510058878    17.662590106     4.886127488
 H       -0.403485882    14.185278801     3.210013618
 H        1.628752886    13.647988552     1.976035889
 H       -0.695244674    17.273607902     5.440289496
 H       -2.028541240    14.707837675     4.258810005
 H       -3.660121759    16.938498193     2.905821086
 H       -5.413616608    16.843583527     1.227029300
 H       -8.080828289    14.995323095     4.057037049
 H       -6.345920482    15.047974364     5.763261687
 H       -8.880323474    15.399972966     1.894013450
 H       -6.919831277    16.756348670    -0.083416372
 H      -10.394002818    15.302082447     0.540266696
 H      -12.129669608    15.232645677    -1.156891181
 H       -9.396660538    17.114114281    -3.973000791
 H       -7.687971946    17.162587729    -2.242852647
 H        3.768469738    18.927692352     0.572904068
 H        2.708074564    17.942848696     1.617141207
 H        3.234487198    16.007838568    -0.216341553
 H        4.633001798    17.008952194    -0.596079185
 H        5.671013447    15.823913710     1.104786215
 H        4.856573997    16.966246837     2.184395971
 H        2.263052929    -1.029691814    -0.042562887
 H        2.275176272     0.477455049     0.907226296
 H        2.260890220     0.545010766    -0.876345865
 H      -14.659928033    15.733644451    -4.103254384
 H      -14.178596069    16.438899571    -2.539679751
 H      -13.898648235    14.705830875    -2.863274712
 H      -11.220145048    17.986123973    -5.303834800
 C      -13.267351308    17.918634065    -6.018253689
 C      -12.516276652    18.976407815    -3.873369078
 H      -12.603312069    14.798586748    -6.053107787
 C      -10.459469195    15.141871824    -6.100317288
 C      -11.608496195    13.406871396    -4.712951146
 H       -4.740034964    15.177390697     7.637671740
 C       -3.907188526    13.404351174     6.701319107
 C       -2.659845719    14.954263995     8.219077673
 H       -2.513095858    17.875700177     7.083619066
 C       -3.249163267    18.913128811     5.321071796
 C       -4.651912553    18.204135142     7.267562922
 H       -6.091785707    11.892873412    -0.953942227
 C       -5.896570738    14.033226124    -1.247654936
 C       -4.686580892    12.277917640    -2.564180851
 H       -5.055473122    13.902186032     1.909421385
 C       -6.199151342    12.064881010     2.047954734
 C       -3.945254642    12.436940758     3.073250960
 H       -1.779683294    -0.906327559    -1.445088140
 C       -0.297754393    -0.172771627    -2.849438324
 C       -0.187862448    -2.366624624    -1.641946295
 H       -0.123549662    -1.937799922     1.512373615
 C       -0.190777978    -0.230520290     2.854958309
 C       -2.139970690    -1.132765480     1.572812964
 H      -13.097283068    17.174043504    -6.806627271
 H      -13.199085093    18.902328180    -6.505426374
 H      -14.306941925    17.816075735    -5.679886484
 H      -11.790944626    19.012442582    -3.047888495
 H      -13.520051135    18.935381885    -3.430095284
 H      -12.444469504    19.945758512    -4.387098469
 H      -10.504110970    16.099911929    -6.633470220
 H      -10.280681978    14.373715515    -6.866959206
 H       -9.564194034    15.150678334    -5.462651144
 H      -12.518558816    13.059141209    -4.207496012
 H      -10.778942348    13.329941637    -3.995331435
 H      -11.398816367    12.673833689    -5.505160929
 H       -4.739514982    13.241944518     6.002639837
 H       -4.107196589    12.758922830     7.568799769
 H       -2.993236129    13.011844847     6.233079115
 H       -2.558058528    15.952008610     8.664743245
 H       -1.673055332    14.658380782     7.834361297
 H       -2.882425850    14.269879575     9.050338536
 H       -2.367359823    18.754332392     4.685228521
 H       -3.124380703    19.904098190     5.779760423
 H       -4.125070680    18.990275429     4.660678211
 H       -4.789827633    17.546597152     8.135423665
 H       -5.588481309    18.199717146     6.692232957
 H       -4.546149579    19.222337472     7.669676112
 H       -6.404207829    14.319329397    -0.314784376
 H       -6.665950425    14.070432125    -2.032628130
 H       -5.168577076    14.819425391    -1.488944334
 H       -4.259783863    11.266732372    -2.611648884
 H       -3.911138915    12.982183160    -2.894197820
 H       -5.478496518    12.312928637    -3.326134187
 H       -6.935982707    12.335855251     1.280376981
 H       -6.651657934    12.341106347     3.012094362
 H       -6.102679896    10.971289403     2.054059708
 H       -2.985044562    12.970475601     3.063854304
 H       -3.728773388    11.362071103     3.145336869
 H       -4.445015768    12.714385761     4.013043403
 H       -0.650786384     0.868211261    -2.874676276
 H       -0.769074458    -0.677367797    -3.704793591
 H        0.781028969    -0.160930164    -3.053727743
 H       -0.472141403    -2.973940613    -0.772939822
 H        0.897851830    -2.461542098    -1.775716709
 H       -0.647915364    -2.848500965    -2.516926798
 H        0.896025574    -0.114209704     2.954713479
 H       -0.516326970    -0.826727615     3.719465174
 H       -0.644659490     0.763379689     2.978623223
 H       -2.517595486    -1.695498773     0.709843275
 H       -2.699529950    -0.188450267     1.631564948
 H       -2.423849319    -1.711906088     2.463647848

