187   

Si        0.000000000     0.000000000     0.000000000
 C        1.865170956     0.000000000     0.000000000
 C       -0.684064169     1.708824841     0.000000000
 C        0.119036547     2.811335885     0.308055333
 C       -0.413831992     4.100520661     0.303898686
 C       -1.759869716     4.316122068    -0.002223461
 C       -2.564347504     3.209702761    -0.306812154
 C       -2.035333558     1.922289593    -0.304922228
 C       -2.362347155     5.644777672    -0.019457634
 C       -1.709162340     6.787821960     0.250384948
 C       -2.318707914     8.113612155     0.231154685
 C       -1.524005566     9.227144696     0.532516482
 C       -2.063966411    10.511270067     0.526144582
 C       -3.410927538    10.712932238     0.203522317
 C       -4.206582605     9.601628887    -0.099479707
 C       -3.666308932     8.317121652    -0.080052531
Si       -4.158034888    12.393768225     0.184904113
 C       -5.448223340    12.544545891    -1.102619351
 C       -5.441756270    11.858573005    -2.253543661
 C       -6.471261829    11.974728049    -3.287945766
 C       -6.348215103    11.198972080    -4.451168958
 C       -7.293726258    11.270671555    -5.460258741
 C       -8.383285500    12.159521489    -5.351382451
 C       -8.509781647    12.936517092    -4.189015132
 C       -7.572325672    12.825169590    -3.167745647
 N       -9.324091082    12.196380241    -6.409843331
 C       -8.732983400    12.392883111    -7.751498892
 C      -10.517728964    13.030608462    -6.187287465
 C       -7.790127490    13.608183868    -7.830799585
 C       -7.673214023    14.201544184    -9.244261111
 N       -8.928469943    14.715869959    -9.841169441
 C       -9.842888445    15.291619577    -8.931183898
 C       -9.371378093    16.306300568    -8.070623406
 C      -10.227838295    16.902102970    -7.160984125
 C      -11.581701771    16.537774880    -7.096795553
 C      -12.050453174    15.554943866    -7.970806589
 C      -11.202563048    14.944467587    -8.888365381
 C       -9.493116665    13.822911181   -10.866001521
 C      -12.445909122    17.198375457    -6.116445195
 C      -13.749041286    16.927456622    -5.970777538
Si      -14.884241622    17.710468866    -4.772134876
 C      -15.794105022    16.386746760    -3.875635541
 C      -15.189787657    15.136024819    -3.692693808
 C      -15.862441931    14.121594361    -3.016831188
 C      -17.146467908    14.334616288    -2.497848355
 C      -17.742709293    15.586141304    -2.676382349
 C      -17.074369125    16.603317521    -3.357103365
 C      -17.809884969    13.239859197    -1.797450108
 C      -19.038761209    13.308860452    -1.257999461
 C      -19.700853544    12.213094161    -0.557844844
 C      -19.104055328    10.962343990    -0.379846662
 C      -19.773365134     9.942342978     0.296236863
 C      -21.060006423    10.149826829     0.803050059
 C      -21.661670464    11.402979100     0.624262106
 C      -20.988818703    12.420832720    -0.045856328
Si      -21.957528002     8.814545557     1.697769119
 C      -21.106503486     7.165937293     1.504261031
 C      -22.046842639     9.239768299     3.551109364
 C      -23.729963717     8.725673735     1.009522517
 C      -13.939708831    18.773230420    -3.510122605
 C      -16.102848178    18.821163918    -5.719361183
 C       -4.957676744    12.728071579     1.878069114
 C       -2.820396834    13.709371471    -0.130000298
 C       -0.653230473    -0.905000521    -1.542541287
 C       -0.614066161    -0.924517789     1.546487509
 H        1.178878965     2.705190061     0.555210647
 H        0.233033353     4.942290303     0.544139638
 H       -3.615695643     3.355648799    -0.547836142
 H       -2.711475620     1.098602038    -0.550968986
 H       -3.426044936     5.660014280    -0.276022328
 H       -0.646282132     6.775117325     0.507619913
 H       -0.472732453     9.090673404     0.777996173
 H       -1.396970388    11.340430992     0.776731366
 H       -5.267000895     9.699755436    -0.357207187
 H       -4.306994283     7.468961229    -0.314820756
 H       -6.245000278    13.267791040    -0.872663646
 H       -4.652432266    11.137065989    -2.509753869
 H       -5.502021338    10.519535474    -4.558933611
 H       -7.199868496    10.637355340    -6.338489437
 H       -9.333883221    13.634654652    -4.073702391
 H       -7.697910326    13.428945998    -2.268278644
 H      -11.238055334    12.857239052    -7.006185046
 H      -10.311498583    14.114014238    -6.147725422
 H      -11.013939140    12.721265474    -5.250908619
 H       -8.717372458    13.614201634   -11.624064132
 H      -10.314805003    14.342038323   -11.391974406
 H       -9.869668160    12.863369490   -10.478759807
 H       -8.332077959    16.621337490    -8.130994890
 H       -9.844619934    17.675473356    -6.494237405
 H      -13.100715083    15.258810324    -7.945693338
 H      -11.604008708    14.185101290    -9.551796782
 H      -11.919720282    17.943648891    -5.506344643
 H      -14.248549676    16.178022880    -6.608356833
 H      -14.187008456    14.914510793    -4.073627866
 H      -15.381339215    13.153434215    -2.889226323
 H      -18.739402827    15.777115561    -2.283061184
 H      -17.590972965    17.560548409    -3.466964584
 H      -17.224904674    12.317514177    -1.732645150
 H      -19.624268218    14.230588709    -1.322430060
 H      -18.105045496    10.773424106    -0.768696664
 H      -19.254305687     8.986039854     0.405782908
 H      -22.666100919    11.622259366     0.997425247
 H      -21.472045927    13.387551373    -0.173734216
 H       -8.189882049    11.461749658    -8.026924293
 H       -9.565599052    12.490217270    -8.482092283
 H       -8.130777442    14.388021274    -7.118851623
 H       -6.782593350    13.322552035    -7.469311241
 H       -6.963720729    15.064742896    -9.217727250
 H       -7.220886594    13.452607554    -9.929797111
 H        2.262687413    -1.029686701    -0.045281593
 H        2.275245344     0.475055637     0.908385510
 H        2.260950944     0.547240225    -0.874873544
 H      -21.673291430     6.363706179     2.009733222
 H      -20.090108365     7.177170755     1.935542597
 H      -21.018121921     6.888022752     0.438275392
 H      -22.542434033     8.353151284     4.042675240
 C      -20.653701035     9.418473407     4.182155116
 C      -22.891556264    10.488685200     3.860082861
 H      -24.187453781     9.739636158     1.201914523
 C      -23.760287630     8.476667653    -0.509339893
 C      -24.608083064     7.672385071     1.708093814
 H      -13.327034106    19.503578157    -4.113927425
 C      -14.866747560    19.580196786    -2.583710859
 C      -12.977832495    17.939768976    -2.643364319
 H      -16.771762851    19.285903967    -4.938191647
 C      -15.407452464    19.958805305    -6.487650330
 C      -16.990466585    18.027291340    -6.694405058
 H       -5.386383883    13.770014767     1.820376413
 C       -6.109886623    11.753551516     2.181248220
 C       -3.950219170    12.688717637     3.040282426
 H       -2.076009997    13.607509681     0.711628167
 C       -2.077293971    13.479497737    -1.458337189
 C       -3.367553873    15.147860569    -0.107470257
 H       -1.777781279    -0.912049193    -1.444014664
 C       -0.300097486    -0.171872863    -2.849331714
 C       -0.180658227    -2.366167975    -1.643758999
 H       -0.118112324    -1.937450507     1.513164318
 C       -0.194068874    -0.229844135     2.854842517
 C       -2.137767737    -1.140767504     1.570527483
 H      -20.012473476     8.533270037     4.082154727
 H      -20.750111389     9.607363159     5.260981432
 H      -20.103901015    10.275927900     3.767922609
 H      -23.928739664    10.411494038     3.510326808
 H      -22.460817488    11.409031071     3.441239601
 H      -22.946223458    10.644816430     4.947453969
 H      -23.196742070     9.226199614    -1.083319851
 H      -24.794852389     8.522201439    -0.878290542
 H      -23.375440738     7.487318745    -0.790042248
 H      -24.693090840     7.826424522     2.791591985
 H      -24.257941788     6.644857084     1.542766987
 H      -25.632671028     7.714935165     1.310713522
 H      -15.518807072    20.280188384    -3.121511548
 H      -14.268102953    20.190151426    -1.891478907
 H      -15.504312629    18.942661848    -1.954757005
 H      -12.247896405    17.361880432    -3.226490810
 H      -13.503406734    17.234475129    -1.983203525
 H      -12.395355259    18.599876534    -1.985298665
 H      -14.819787789    20.624800570    -5.842726348
 H      -16.157670483    20.592900643    -6.981526069
 H      -14.742245185    19.594039680    -7.283469832
 H      -17.551386356    17.214565778    -6.211880270
 H      -16.424723753    17.590058761    -7.528630768
 H      -17.740990772    18.691349654    -7.146494495
 H       -6.902292012    11.763906286     1.420340641
 H       -6.591802171    12.023339230     3.131660418
 H       -5.771251009    10.713425852     2.293665229
 H       -3.141381970    13.423798180     2.941781107
 H       -3.489077305    11.699489440     3.173553379
 H       -4.459623859    12.918327790     3.987448120
 H       -1.604888121    12.489919215    -1.529530512
 H       -1.269275868    14.215642684    -1.571902668
 H       -2.727989136    13.597396970    -2.337052539
 H       -3.844967890    15.417996939     0.843026320
 H       -4.089072284    15.343042446    -0.913160180
 H       -2.545965038    15.864279111    -0.251806611
 H       -0.655640551     0.868277570    -2.872908089
 H       -0.771747775    -0.676715910    -3.704378112
 H        0.778287219    -0.157248763    -3.055584234
 H       -0.459053685    -2.974679787    -0.773675683
 H        0.904899670    -2.456670086    -1.781831751
 H       -0.642246961    -2.849866839    -2.516937386
 H        0.892128233    -0.109386424     2.956210418
 H       -0.518668661    -0.826867537     3.719171721
 H       -0.651954067     0.762343322     2.977392778
 H       -2.511768310    -1.706063852     0.707626279
 H       -2.701492915    -0.198826599     1.627491845
 H       -2.420520101    -1.720213443     2.461537504

