187   

Si        0.000000000     0.000000000     0.000000000
 C        1.866861484     0.000000000     0.000000000
 C       -0.633043898     1.727607663     0.000000000
 C       -0.058282136     2.639908933    -0.893609029
 C       -0.498729118     3.959600489    -0.936001318
 C       -1.508898019     4.407407049    -0.077980125
 C       -2.089216812     3.492159796     0.807016171
 C       -1.669651284     2.162810054     0.832980811
 C       -1.985026769     5.787555757    -0.106599655
 C       -1.494087806     6.713707292    -0.947260627
 C       -1.917387467     8.104344204    -1.033311814
 C       -1.284902779     8.924766912    -1.978278701
 C       -1.642417026    10.261747766    -2.111134413
 C       -2.613265405    10.821401784    -1.270176445
 C       -3.224097399    10.013276074    -0.306554784
 C       -2.871776694     8.668102736    -0.184029765
Si       -3.058970656    12.592569019    -1.476651498
 C       -4.306214242    13.058047641    -0.225689569
 C       -4.213846961    14.131090715     0.569891634
 C       -5.212112810    14.504364070     1.571706737
 C       -4.986389885    15.657246221     2.337480115
 C       -5.894298304    16.061767081     3.300773700
 C       -7.041691854    15.284288511     3.563011858
 C       -7.266232686    14.126594855     2.802210305
 C       -6.368397038    13.757469831     1.807535988
 N       -7.937618318    15.741428171     4.556548927
 C       -7.314953842    16.129144572     5.841594002
 C       -9.193951362    14.991718580     4.705049686
 C       -6.140502004    15.253657382     6.317446475
 C       -6.585568446    13.924312257     6.955963984
 N       -5.757723608    12.771348240     6.568303315
 C       -6.151648953    11.935251905     5.520271069
 C       -7.520279551    11.781683117     5.208887312
 C       -7.917940974    10.955293300     4.172259933
 C       -6.990973318    10.173622821     3.467673778
 C       -5.638476536    10.296023605     3.797813442
 C       -5.216919940    11.165780254     4.795053033
 C       -4.318003660    12.983886332     6.772751070
 C       -7.486079814     9.325128201     2.384935628
 C       -6.738849864     8.520787560     1.616160931
Si       -7.442576650     7.487095108     0.275804014
 C       -6.845821344     5.753766803     0.450473265
 C       -6.126790058     5.350016457     1.582126272
 C       -5.679527355     4.036017808     1.704900497
 C       -5.945059788     3.091934246     0.705355220
 C       -6.665063704     3.498084191    -0.422582947
 C       -7.109500429     4.812719707    -0.551227027
 C       -5.458890540     1.725130656     0.871860885
 C       -5.650374013     0.741100001    -0.022945952
 C       -5.176275807    -0.631034604     0.118036811
 C       -4.454335442    -1.078158852     1.227284967
 C       -4.024418271    -2.403690037     1.310864613
 C       -4.320123161    -3.314728310     0.292326840
 C       -5.050527580    -2.869451579    -0.818490637
 C       -5.471599288    -1.545937684    -0.902811367
Si       -3.768628943    -5.069966868     0.370618272
 C       -2.615428216    -5.374332566     1.804396570
 C       -5.285601486    -6.201803927     0.578722101
 C       -2.911644039    -5.500460410    -1.273268936
 C       -9.346339666     7.480451194     0.413226125
 C       -7.008970244     8.188885101    -1.439445096
 C       -1.515836194    13.691886882    -1.284980106
 C       -3.774329071    12.835156930    -3.221676766
 C       -0.637895565    -0.876442310    -1.565609130
 C       -0.648977190    -0.957194714     1.508882412
 H        0.744862567     2.356662623    -1.580227734
 H       -0.039820086     4.644922714    -1.646620279
 H       -2.893676537     3.814229132     1.466800822
 H       -2.180814264     1.484766002     1.521290283
 H       -2.785022564     6.024744208     0.598502235
 H       -0.698961430     6.446424472    -1.652491954
 H       -0.518265245     8.508897215    -2.628878961
 H       -1.135255535    10.845002583    -2.884986759
 H       -3.981319610    10.401563337     0.383010582
 H       -3.352377319     8.055694009     0.577802962
 H       -5.176254287    12.383133555    -0.175624200
 H       -3.363314961    14.825469638     0.537249613
 H       -4.092163887    16.256005553     2.163394261
 H       -5.727594979    16.983119399     3.851965571
 H       -8.128621852    13.493336923     2.992125935
 H       -6.565748584    12.854436126     1.226273036
 H       -9.853771749    15.520452389     5.413360040
 H       -9.066439012    13.952827777     5.047846537
 H       -9.718129408    14.976562082     3.730987883
 H       -4.149852871    13.646271695     7.638050584
 H       -3.815802871    13.424736889     5.894357955
 H       -3.837580163    12.015618369     7.008588083
 H       -8.273948826    12.310804268     5.784412831
 H       -8.978414104    10.888255222     3.925915240
 H       -4.893186371     9.710713612     3.256163051
 H       -4.154327544    11.252190713     4.997039577
 H       -8.575244333     9.415140832     2.256185258
 H       -5.649661041     8.447105381     1.745664114
 H       -5.896289668     6.041772970     2.398481242
 H       -5.124271594     3.741755307     2.593318880
 H       -6.880963868     2.786909743    -1.217732628
 H       -7.658205965     5.072189603    -1.461137350
 H       -4.908406807     1.540292495     1.798028545
 H       -6.198325261     0.937074814    -0.950108199
 H       -4.217645613    -0.390369953     2.037126999
 H       -3.454868107    -2.694396941     2.198259101
 H       -5.309869950    -3.534715777    -1.646938812
 H       -6.036473496    -1.219519132    -1.774001223
 H       -6.951942931    17.177845241     5.705905097
 H       -8.097370908    16.179719529     6.628703119
 H       -5.456107415    15.048928703     5.467524117
 H       -5.531122401    15.830081781     7.037780297
 H       -6.532957903    13.999897736     8.068486766
 H       -7.653409123    13.722248600     6.723778678
 H        2.266779993    -1.028956597    -0.006007225
 H        2.259325643     0.506073854     0.900627079
 H        2.277056555     0.524493392    -0.879969892
 H       -2.299613978    -6.432280324     1.841092620
 H       -3.094951111    -5.137491508     2.770247519
 H       -1.700938817    -4.759594339     1.719691371
 H       -4.870072519    -7.243226527     0.706151795
 C       -6.106378695    -5.858690623     1.835566997
 C       -6.229313466    -6.213420150    -0.636682289
 H       -3.681953022    -5.317431429    -2.078162866
 C       -1.700441004    -4.598653476    -1.568670430
 C       -2.473032154    -6.972872522    -1.366424794
 H       -9.658386646     8.564466342     0.415070699
 C      -10.060649739     6.789024423    -0.761522638
 C       -9.833967925     6.832823472     1.722702557
 H       -7.820418104     7.809827128    -2.127625862
 C       -7.039856707     9.727301779    -1.469656113
 C       -5.666450425     7.702096158    -2.005044170
 H       -1.904805079    14.750846631    -1.233813474
 C       -0.754187789    13.395876442     0.020489682
 C       -0.524999958    13.619034029    -2.459915410
 H       -2.942102365    12.560478496    -3.932942534
 C       -4.968003923    11.908743381    -3.511706427
 C       -4.188162107    14.289601995    -3.506047488
 H       -0.353525954    -1.961898840    -1.447659637
 C       -2.165229347    -0.787768152    -1.711885698
 C        0.009359867    -0.357558130    -2.862824579
 H       -1.775197483    -0.956156883     1.410321249
 C       -0.179789388    -2.423257479     1.542477725
 C       -0.283830492    -0.298623483     2.851924464
 H       -5.524375893    -5.909510591     2.764806537
 H       -6.933667327    -6.573399270     1.952110879
 H       -6.566602085    -4.861332016     1.785902956
 H       -5.735205752    -6.507037504    -1.571360876
 H       -6.721244801    -5.244959993    -0.803320774
 H       -7.037640838    -6.941937160    -0.476262067
 H       -1.950040843    -3.526345154    -1.565357855
 H       -1.303095997    -4.816301208    -2.570232310
 H       -0.869798954    -4.752115769    -0.867437009
 H       -3.300387203    -7.682975347    -1.240652610
 H       -1.694333585    -7.235090434    -0.638009192
 H       -2.045046931    -7.174693160    -2.359208465
 H       -9.844397898     7.243891607    -1.736226734
 H      -11.150438894     6.858268828    -0.629369798
 H       -9.830879453     5.716665856    -0.830365786
 H       -9.400317546     7.280427395     2.627340305
 H       -9.627135213     5.753473663     1.763724718
 H      -10.923423690     6.941611435     1.815862775
 H       -7.990523589    10.155934997    -1.128839322
 H       -6.893653116    10.082504399    -2.499969071
 H       -6.234855743    10.178146489    -0.870166410
 H       -5.553119021     6.609643222    -2.003178309
 H       -4.801444700     8.119827028    -1.470619770
 H       -5.556928864     8.020807936    -3.051003481
 H       -1.378427759    13.475501120     0.921551914
 H        0.069320502    14.111643400     0.149310294
 H       -0.297968943    12.395394103     0.028610644
 H       -0.979317897    13.851811133    -3.431191632
 H       -0.030892307    12.641743194    -2.543284740
 H        0.280459415    14.354034894    -2.315098844
 H       -4.738582466    10.843976137    -3.359127685
 H       -5.275115491    12.007765040    -4.562339760
 H       -5.852102985    12.152457976    -2.906337440
 H       -3.364350931    15.006821547    -3.398999107
 H       -5.012544671    14.632543732    -2.864253015
 H       -4.544843494    14.384127529    -4.541528138
 H       -2.712592794    -1.230849967    -0.866101153
 H       -2.496052687    -1.331212924    -2.607733432
 H       -2.528059072     0.243909426    -1.828107891
 H        1.102478662    -0.447339801    -2.871409374
 H       -0.246363249     0.689711225    -3.076449282
 H       -0.354155111    -0.941101477    -3.720931883
 H       -0.468628783    -2.990687605     0.647268805
 H       -0.634906214    -2.940898334     2.399433630
 H        0.906455336    -2.523448151     1.664527081
 H       -0.599486125     0.750384552     2.930399024
 H        0.793873751    -0.329077756     3.060704827
 H       -0.773664748    -0.832153021     3.678510464

