187   

Si        0.000000000     0.000000000     0.000000000
 C        1.865049245     0.000000000     0.000000000
 C       -0.682567212     1.709577615     0.000000000
 C        0.106860942     2.802220910     0.372476887
 C       -0.421307574     4.093231831     0.368611789
 C       -1.749305490     4.320598811    -0.001377758
 C       -2.540428173     3.224059026    -0.369653291
 C       -2.016078195     1.934615459    -0.367550007
 C       -2.346121845     5.651819866    -0.020972370
 C       -1.703846682     6.785966197     0.306451247
 C       -2.306828291     8.114697714     0.284715854
 C       -1.524512388     9.217600042     0.650288440
 C       -2.058842230    10.504240730     0.644059279
 C       -3.386387789    10.718792446     0.257214046
 C       -4.169622757     9.618204737    -0.110900928
 C       -3.635626847     8.331260433    -0.092152499
Si       -4.127950760    12.400049565     0.235568954
 C       -5.303455283    12.605906440    -1.149197045
 C       -5.192165026    11.959298537    -2.317247699
 C       -6.120336892    12.108868329    -3.437527783
 C       -5.886237745    11.370846481    -4.605728997
 C       -6.730067290    11.470446380    -5.699572720
 C       -7.820214244    12.367941224    -5.682393567
 C       -8.055252612    13.109111917    -4.507545813
 C       -7.231926703    12.955094082    -3.400398328
 N       -8.672014071    12.463605906    -6.795640346
 C       -8.097216101    12.162103084    -8.121022162
 C       -9.625462989    13.585087022    -6.805330820
 C       -6.807085514    12.924383438    -8.476976688
 C       -7.062692419    14.331982378    -9.050080050
 N       -6.170775936    15.386796888    -8.514975906
 C       -6.484043086    15.712074587    -7.155695246
 C       -7.605737567    16.536832207    -6.962526036
 C       -7.981430587    16.901676631    -5.679577352
 C       -7.253615356    16.459828260    -4.564175415
 C       -6.129927736    15.654955770    -4.766782355
 C       -5.733672316    15.293786948    -6.051452604
 C       -4.744928607    15.115645431    -8.769620422
 C       -7.702858609    16.880983977    -3.235482714
 C       -7.107806290    16.537244051    -2.085580450
Si       -7.716854182    17.095883520    -0.451811123
 C       -9.538193098    17.347797568    -0.470624324
 C      -10.341287058    16.498625069    -1.244591562
 C      -11.722108731    16.668710217    -1.275519350
 C      -12.336972086    17.680245168    -0.525358179
 C      -11.534305660    18.519674989     0.251766082
 C      -10.149410385    18.355162045     0.281060247
 C      -13.787986638    17.817860976    -0.591422513
 C      -14.501434499    18.744329823     0.070768484
 C      -15.952826481    18.879146072     0.002393489
 C      -16.751985393    18.037854992    -0.775807538
 C      -18.136637034    18.202081899    -0.812234005
 C      -18.753564238    19.209169004    -0.063549630
 C      -17.954112408    20.053902599     0.718729744
 C      -16.571887232    19.891402666     0.748203905
Si      -20.579885038    19.438487921    -0.101187086
 C      -21.438224551    17.976312699    -0.878734990
 C      -21.188377336    19.683768553     1.685784241
 C      -21.001542593    21.000489080    -1.103865602
 C       -7.329970375    15.731328278     0.816954219
 C       -6.796193141    18.684226807     0.033506065
 C       -5.070530772    12.669183322     1.866467149
 C       -2.787294530    13.740701506     0.076813199
 C       -0.650482381    -0.910935687    -1.540352426
 C       -0.620062920    -0.918881622     1.547377015
 H        1.152404516     2.686723709     0.671055911
 H        0.214850203     4.927205363     0.659345966
 H       -3.577716867     3.379095072    -0.660682886
 H       -2.681602630     1.118926837    -0.663741803
 H       -3.395150675     5.676905478    -0.331336462
 H       -0.655586618     6.762851291     0.617475226
 H       -0.487663291     9.071093036     0.946280210
 H       -1.402451478    11.324765020     0.945497325
 H       -5.214220045     9.727824518    -0.423005923
 H       -4.265762198     7.491347637    -0.379320434
 H       -6.116552122    13.324445729    -0.964492013
 H       -4.382684128    11.244074340    -2.523540803
 H       -5.032354475    10.693492168    -4.654242832
 H       -6.545391004    10.848192330    -6.569624092
 H       -8.880426780    13.813099228    -4.450092846
 H       -7.450244964    13.531023343    -2.498488829
 H      -10.220806235    13.572847145    -7.731953412
 H       -9.139285116    14.573097380    -6.713530485
 H      -10.335666274    13.460937299    -5.966854841
 H       -4.588194675    15.076353198    -9.861552258
 H       -4.364293769    14.180897057    -8.331069664
 H       -4.143489632    15.956422746    -8.380995714
 H       -8.160020277    16.894764404    -7.828144161
 H       -8.850249606    17.545231834    -5.539146161
 H       -5.550670612    15.295944797    -3.913891269
 H       -4.856257785    14.666395320    -6.183362605
 H       -8.601682035    17.514555886    -3.271375945
 H       -6.202921116    15.911073120    -2.068505667
 H       -9.917067506    15.687101458    -1.846652873
 H      -12.329873955    16.004596643    -1.887235867
 H      -11.986674912    19.312671947     0.844412330
 H       -9.574332698    19.042153089     0.907806611
 H      -14.286658438    17.091119846    -1.239503578
 H      -14.004106192    19.471192903     0.719713141
 H      -16.297394377    17.242746237    -1.363877676
 H      -18.708549024    17.514147110    -1.440999374
 H      -18.380947249    20.857812062     1.325156774
 H      -15.967730654    20.558357982     1.360469259
 H       -7.897849266    11.063027519    -8.145430331
 H       -8.875121391    12.337755132    -8.896268542
 H       -6.165601099    13.002236928    -7.573367874
 H       -6.218002470    12.328282696    -9.197049720
 H       -6.935919768    14.326400572   -10.155427860
 H       -8.112444899    14.648020807    -8.862216195
 H        2.262738905    -1.029532791    -0.047055476
 H        2.275880083     0.473778800     0.908656326
 H        2.260182166     0.548905833    -0.874215647
 H      -22.535739561    18.100097303    -0.854718160
 H      -21.198170134    17.042574933    -0.338321942
 H      -21.142211573    17.841055202    -1.933720584
 H      -20.662323514    20.606551254     2.068120144
 C      -22.704261172    19.928448910     1.789722618
 C      -20.805470189    18.509464759     2.604612180
 H      -22.128516362    21.048151730    -1.134148335
 C      -20.487008806    22.302321752    -0.463853150
 C      -20.487703829    20.927369555    -2.553506628
 H       -6.248994472    15.454007174     0.646943510
 C       -7.479339570    16.188326141     2.277869666
 C       -8.196517720    14.478462275     0.599159488
 H       -7.166572832    18.961379522     1.062494970
 C       -5.270092452    18.497074001     0.111650461
 C       -7.107486683    19.854109686    -0.916914438
 H       -5.565733678    13.680627925     1.779767614
 C       -6.170565664    11.614566139     2.082682568
 C       -4.153011373    12.693944705     3.100652585
 H       -2.090824662    13.592733682     0.951320040
 C       -1.969139308    13.594490179    -1.218927315
 C       -3.347253057    15.172966450     0.152039328
 H       -1.775142081    -0.919689930    -1.443708331
 C       -0.295948792    -0.182438257    -2.849308136
 C       -0.176086104    -2.372046638    -1.635348610
 H       -0.136477949    -1.937607751     1.513121173
 C       -0.190130284    -0.229833673     2.855430484
 C       -2.146433837    -1.115909552     1.572082492
 H      -23.045218843    20.797804927     1.212815944
 H      -22.981500213    20.126198523     2.835483122
 H      -23.300590936    19.062381529     1.473476109
 H      -19.724488846    18.309827933     2.626072237
 H      -21.309371344    17.571636305     2.335829718
 H      -21.097119236    18.731105679     3.641160188
 H      -20.874990668    22.473932721     0.548139012
 H      -20.805838144    23.166818403    -1.064432887
 H      -19.389888872    22.350633500    -0.418115870
 H      -20.875224887    20.065199121    -3.111252006
 H      -19.390348366    20.898556868    -2.616616853
 H      -20.804209160    21.820645880    -3.110937225
 H       -6.820758907    17.024637223     2.544031599
 H       -7.218187676    15.364101197     2.958150489
 H       -8.507796474    16.478809496     2.533650747
 H       -8.120489882    14.058250249    -0.413003560
 H       -9.262632040    14.657621660     0.800637287
 H       -7.887828205    13.679631056     1.290370091
 H       -4.960880331    17.716730722     0.819337091
 H       -4.794964226    19.427455478     0.454330519
 H       -4.818923027    18.265309256    -0.863708868
 H       -8.178262375    20.090651638    -0.984849433
 H       -6.742799049    19.682245904    -1.940285197
 H       -6.612663576    20.769917499    -0.563965753
 H       -6.888598451    11.553226533     1.253004145
 H       -6.754270358    11.856183864     2.982134865
 H       -5.766158921    10.604448758     2.243084844
 H       -3.398314830    13.489900605     3.066844056
 H       -3.627866786    11.742009414     3.263825559
 H       -4.747817707    12.872778600     4.008131671
 H       -1.485091115    12.613709204    -1.321889211
 H       -1.160630563    14.338216522    -1.242265900
 H       -2.570681851    13.761362449    -2.124815251
 H       -3.880933036    15.381993131     1.088191905
 H       -4.020253907    15.412325038    -0.683938468
 H       -2.524250379    15.900319716     0.100645863
 H       -0.653221918     0.856971682    -2.877946975
 H       -0.764468412    -0.691682517    -3.703446989
 H        0.782935249    -0.166589648    -3.053120416
 H       -0.458298657    -2.978306585    -0.764915942
 H        0.910162458    -2.462228974    -1.768008580
 H       -0.633124117    -2.858557397    -2.509346894
 H        0.897582530    -0.122886944     2.955545522
 H       -0.520971997    -0.823170362     3.719947059
 H       -0.635940665     0.767729552     2.978906033
 H       -2.526315754    -1.685071466     0.714293714
 H       -2.698840892    -0.166618579     1.618616931
 H       -2.437364638    -1.682882215     2.468437432

