187   

Si        0.000000000     0.000000000     0.000000000
 C        1.865000800     0.000000000     0.000000000
 C       -0.679781698     1.710836126     0.000000000
 C        0.083015152     2.787752383     0.463442983
 C       -0.439584937     4.080999206     0.460040091
 C       -1.735891408     4.326411602    -0.000191144
 C       -2.500940563     3.245483935    -0.458398559
 C       -1.982349467     1.953657370    -0.455982922
 C       -2.326157827     5.660374446    -0.023362068
 C       -1.708180011     6.781734679     0.384894399
 C       -2.306580093     8.112481260     0.358110433
 C       -1.553386670     9.202103384     0.813436561
 C       -2.085111449    10.489794008     0.805683319
 C       -3.379071230    10.720209088     0.325164681
 C       -4.132501779     9.632771623    -0.133654103
 C       -3.602741886     8.344107255    -0.111956945
Si       -4.121736304    12.403504986     0.296011778
 C       -5.174329969    12.638978866    -1.180480194
 C       -4.960659477    12.025211049    -2.352377386
 C       -5.793325545    12.203054150    -3.542295497
 C       -5.460127576    11.499764988    -4.709773803
 C       -6.213057373    11.630459460    -5.864058106
 C       -7.371253016    12.438662750    -5.874471314
 C       -7.708232806    13.141717154    -4.703233617
 C       -6.913674066    13.036802124    -3.567918677
 N       -8.119505135    12.555239019    -7.060268928
 C       -8.250908009    11.336928820    -7.879397476
 C       -9.365134943    13.336541417    -6.994258733
 C       -8.852193127    10.139133610    -7.115842854
 C       -9.533112374     9.137793877    -8.066413984
 N      -11.000972374     9.300136302    -8.181203565
 C      -11.399442825    10.595170036    -8.612051399
 C      -10.994159947    11.002725058    -9.898976895
 C      -11.350174265    12.252676908   -10.376842003
 C      -12.144121832    13.119705268    -9.609336044
 C      -12.563460235    12.700495794    -8.345446354
 C      -12.206363791    11.450673806    -7.849057023
 C      -11.717114805     8.770259391    -7.007340564
 C      -12.490619818    14.429942264   -10.163865320
 C      -13.239675647    15.340703245    -9.528296278
Si      -13.669453807    16.976324428   -10.226100771
 C      -13.770327288    16.930513328   -12.061325786
 C      -14.233934512    15.773119017   -12.700874275
 C      -14.317260715    15.719800296   -14.089443373
 C      -13.952919371    16.823115190   -14.872734796
 C      -13.499069972    17.978906931   -14.231328422
 C      -13.410167227    18.034324615   -12.840648684
 C      -14.057962538    16.717947263   -16.324229803
 C      -13.738246603    17.696113820   -17.188476257
 C      -13.843863320    17.589379014   -18.639928979
 C      -14.297792395    16.433145812   -19.279533174
 C      -14.383075845    16.374240033   -20.670524266
 C      -14.021280185    17.475360434   -21.452759997
 C      -13.566339678    18.636772495   -20.813373625
 C      -13.477187875    18.690706167   -19.425256537
Si      -14.127759355    17.414567777   -23.289585927
 C      -15.081985812    15.921749729   -23.873095312
 C      -14.972719934    19.011360009   -23.889323251
 C      -12.373940492    17.343172941   -24.025938757
 C      -15.359089720    17.504181252    -9.531571523
 C      -12.353997217    18.230722484    -9.664354917
 C       -5.198292322    12.625918427     1.848435268
 C       -2.760109101    13.732021649     0.302443798
 C       -0.646641761    -0.918439150    -1.537640385
 C       -0.626261358    -0.912019120     1.548785998
 H        1.103429829     2.657944172     0.834502563
 H        0.175472444     4.902564962     0.822716910
 H       -3.513552412     3.414420236    -0.819778452
 H       -2.627502684     1.150622676    -0.823012802
 H       -3.349229499     5.699476958    -0.409618120
 H       -0.685897008     6.745772700     0.771825395
 H       -0.541877635     9.043914086     1.182170364
 H       -1.453536121    11.299173137     1.181564355
 H       -5.150039519     9.754078022    -0.521205224
 H       -4.210226781     7.515085038    -0.470110644
 H       -6.004672990    13.347987029    -1.048523126
 H       -4.131709738    11.319279213    -2.508845898
 H       -4.584761329    10.848766968    -4.714907889
 H       -5.906991878    11.106106055    -6.764782358
 H       -8.587834996    13.776302540    -4.670416695
 H       -7.187154799    13.605637829    -2.678319757
 H       -9.817378286    13.402879230    -8.002021789
 H       -9.133719656    14.369786021    -6.680434723
 H      -10.120771244    12.909835514    -6.315803602
 H      -11.475844690     7.697591587    -6.902715363
 H      -12.805572871     8.838067959    -7.180120722
 H      -11.474700256     9.274414460    -6.058921847
 H      -10.409455300    10.324622338   -10.517247128
 H      -11.020645706    12.560206869   -11.370355847
 H      -13.185731278    13.354077807    -7.732775067
 H      -12.546163251    11.157233833    -6.860360549
 H      -12.079512645    14.595994970   -11.170068876
 H      -13.634507662    15.153892165    -8.518140319
 H      -14.537807804    14.882494055   -12.140293208
 H      -14.672800428    14.809651269   -14.569093640
 H      -13.210462370    18.850276111   -14.816160708
 H      -13.048416793    18.965800787   -12.396713857
 H      -14.428471464    15.754527989   -16.686925687
 H      -13.367838276    18.659682703   -16.826332510
 H      -14.589744372    15.563424664   -18.693742166
 H      -14.743991530    15.441858489   -21.113437127
 H      -13.270639406    19.528568006   -21.373333156
 H      -13.120045679    19.600844390   -18.947035931
 H       -8.872937312    11.586025829    -8.770488942
 H       -7.246054316    11.075238714    -8.281087712
 H       -8.060756992     9.635937609    -6.529707596
 H       -9.576373113    10.501456391    -6.361112919
 H       -9.103192196     9.210052420    -9.090563917
 H       -9.332645558     8.095348198    -7.731497059
 H        2.262812319    -1.029346492    -0.049626895
 H        2.276686419     0.472093172     0.909062829
 H        2.259120396     0.551322009    -0.873262010
 H      -15.177103657    15.915686575   -24.973701047
 H      -16.103880848    15.915119512   -23.452243054
 H      -14.588964829    14.979228308   -23.577084287
 H      -14.315659627    19.859585392   -23.538199374
 C      -15.086927760    19.107136390   -25.421118924
 C      -16.367598966    19.208719670   -23.268728502
 H      -12.516444824    17.241531695   -25.140726743
 C      -11.540903131    18.611041231   -23.766202268
 C      -11.577616441    16.120868881   -23.533167863
 H      -15.242220340    17.532391847    -8.409901381
 C      -15.793438321    18.902942863   -10.002561023
 C      -16.469620411    16.494153176    -9.871604406
 H      -12.680997826    19.230869954   -10.071174954
 C      -12.247439948    18.352654635    -8.133660938
 C      -10.961433012    17.910821417   -10.236547213
 H       -5.619453791    13.670807114     1.788388745
 C       -6.377769466    11.637587020     1.888461754
 C       -4.400917141    12.505839048     3.158845464
 H       -2.160182583    13.561283870     1.242466485
 C       -1.812201036    13.603048262    -0.903456880
 C       -3.314151660    15.167442729     0.348212978
 H       -1.771379100    -0.930183183    -1.442535995
 C       -0.291671887    -0.195426898    -2.849498811
 C       -0.168788007    -2.378968774    -1.625705963
 H       -0.153242178    -1.935662797     1.515425374
 C       -0.189104990    -0.226388010     2.856190004
 C       -2.154740587    -1.092352453     1.572965531
 H      -14.118269900    19.048380223   -25.934067629
 H      -15.526223700    20.074711783   -25.704669676
 H      -15.740429391    18.336599451   -25.851090042
 H      -16.357022436    19.210089252   -22.169315004
 H      -17.092665339    18.449894386   -23.591367829
 H      -16.781473999    20.180782998   -23.572681044
 H      -12.005411328    19.525920254   -24.155133449
 H      -10.564906119    18.527134355   -24.266340759
 H      -11.324881359    18.768222392   -22.700074547
 H      -12.065571484    15.163118975   -23.755083870
 H      -11.376845179    16.149285172   -22.452465172
 H      -10.596016377    16.086837035   -24.027353518
 H      -15.094973065    19.697765069    -9.711158356
 H      -16.762406385    19.166816755    -9.554165401
 H      -15.934646943    18.963961564   -11.091376602
 H      -16.259499358    15.476557556    -9.515352411
 H      -16.675144791    16.432523915   -10.950226852
 H      -17.413713663    16.797924321    -9.397196196
 H      -13.186812610    18.654791826    -7.653604272
 H      -11.508316984    19.123186228    -7.869716761
 H      -11.907189659    17.424437896    -7.653505302
 H      -10.939654527    17.864404505   -11.334222377
 H      -10.550848364    16.963088849    -9.858155044
 H      -10.245740154    18.693795224    -9.948274558
 H       -7.028356396    11.698510765     1.005406478
 H       -7.016834163    11.848181743     2.757581755
 H       -6.054586351    10.591664715     1.991644871
 H       -3.594370422    13.244779506     3.247743499
 H       -3.958695881    11.509325281     3.301124205
 H       -5.064832136    12.671235365     4.019680846
 H       -1.329625764    12.618859610    -0.978337258
 H       -1.000220191    14.339602878    -0.826539889
 H       -2.314423184    13.796577828    -1.862840579
 H       -3.940466083    15.365770217     1.227101808
 H       -3.897509566    15.428534428    -0.546006399
 H       -2.485034264    15.888307097     0.394153096
 H       -0.648647776     0.843865333    -2.883197967
 H       -0.759172734    -0.708700878    -3.701767224
 H        0.787474679    -0.180284457    -3.052441009
 H       -0.451137881    -2.982274069    -0.753276837
 H        0.917875265    -2.467388006    -1.756223518
 H       -0.623323460    -2.870094359    -2.498439405
 H        0.899714163    -0.131773505     2.956481874
 H       -0.526866597    -0.815265871     3.721118043
 H       -0.624006397     0.776089815     2.978625996
 H       -2.539511784    -1.663839162     0.718888968
 H       -2.697178241    -0.136885789     1.610894100
 H       -2.453122216    -1.649274094     2.473136810

