187   

Si        0.000000000     0.000000000     0.000000000
 C        1.865378742     0.000000000     0.000000000
 C       -0.680443553     1.710503946     0.000000000
 C        0.138992232     2.816769703    -0.244671985
 C       -0.391189837     4.107047669    -0.241387902
 C       -1.751140688     4.319990881    -0.002486339
 C       -2.571789521     3.209908240     0.239380377
 C       -2.044815203     1.921639418     0.241921630
 C       -2.350636122     5.650092614     0.010817785
 C       -1.680502282     6.795743708    -0.199980945
 C       -2.285097197     8.123753405    -0.185565867
 C       -1.471062153     9.239295981    -0.421079740
 C       -2.005282542    10.525690441    -0.416750149
 C       -3.367614486    10.727604533    -0.165663730
 C       -4.182847507     9.614242401     0.069364396
 C       -3.647233892     8.327622368     0.053571474
Si       -4.101228664    12.414856901    -0.153536488
 C       -5.510120404    12.534724453     1.006697352
 C       -5.623194138    11.807313328     2.126288387
 C       -6.747411307    11.898094556     3.058867907
 C       -6.747184294    11.079746462     4.198378906
 C       -7.785575596    11.125188169     5.113255502
 C       -8.897473412    11.966834041     4.891935141
 C       -8.899199718    12.786836438     3.748788566
 C       -7.827331654    12.762009786     2.864253171
 N       -9.941281327    11.996541054     5.835772853
 C      -10.279409492    10.722646597     6.498065805
 C      -11.110912522    12.826458868     5.510156067
 C      -10.631852975     9.567309204     5.544959043
 C      -12.105413837     9.559886477     5.102403702
 N      -13.021067004     8.840530897     6.006406320
 C      -12.751274164     7.482621429     6.251360733
 C      -12.165669661     6.690084171     5.240141280
 C      -11.894102166     5.350917694     5.466891575
 C      -12.233153850     4.735896484     6.680606270
 C      -12.840418262     5.514443987     7.669276456
 C      -13.105327508     6.862706815     7.464743795
 C      -13.484087027     9.646060069     7.146555039
 C      -11.922862875     3.317380976     6.866643748
 C      -12.200010414     2.627952382     7.980951281
Si      -11.835098663     0.859921335     8.265064358
 C      -10.969442619     0.654200281     9.874971919
 C      -10.280049290     1.728817294    10.446828342
 C       -9.622206578     1.578138543    11.667010486
 C       -9.628558433     0.350508926    12.335128721
 C      -10.314138245    -0.725866710    11.756405297
 C      -10.976359001    -0.577908655    10.540511576
 C       -8.954168673     0.147117435    13.613065542
 C       -8.264059243     1.092826928    14.272967683
 C       -7.589526603     0.889874689    15.550904443
 C       -7.598949482    -0.335291663    16.222511796
 C       -6.940291675    -0.484768960    17.443031145
 C       -6.251270277     0.588878792    18.015773347
 C       -6.239490298     1.818662583    17.343598157
 C       -6.902163980     1.966164039    16.128429561
Si       -5.377115471     0.407709532    19.625764590
 C       -5.209947373    -1.383964278    20.117841731
 C       -3.657945685     1.209212419    19.466184242
 C       -6.348763582     1.325898472    20.980903841
 C      -13.480019002    -0.096562539     8.299493569
 C      -10.745108885     0.147047972     6.879513951
 C       -2.786721667    13.698539053     0.339671452
 C       -4.727933295    12.821964361    -1.902681941
 C       -0.607372511    -0.926005007    -1.548309307
 C       -0.658590041    -0.901441160     1.541699605
 H        1.209834490     2.713105370    -0.440152610
 H        0.268811979     4.951744192    -0.430149258
 H       -3.633877475     3.353763734     0.428637133
 H       -2.733060615     1.095064565     0.440250485
 H       -3.426201806     5.664016101     0.211178912
 H       -0.605370421     6.783497235    -0.400389807
 H       -0.408414017     9.102548203    -0.611501359
 H       -1.322065055    11.356616494    -0.611989282
 H       -5.255928027     9.711916337     0.267053997
 H       -4.303144978     7.477995606     0.234355227
 H       -6.273528000    13.276148066     0.727637249
 H       -4.868219568    11.068374336     2.432388369
 H       -5.909838268    10.402782972     4.375813030
 H       -7.738606816    10.505151115     6.004406569
 H       -9.730265134    13.452560821     3.542069218
 H       -7.846259472    13.420097828     1.994372982
 H      -11.844775778    12.782475828     6.331839637
 H      -11.614082912    12.537931592     4.572984282
 H      -10.789857073    13.882188892     5.428430627
 H      -13.655881390    10.687940068     6.829728319
 H      -12.784544875     9.648219719     7.998535327
 H      -14.460264283     9.254825209     7.490389970
 H      -11.917275928     7.126577650     4.276725408
 H      -11.420521978     4.764109650     4.678822259
 H      -13.116576129     5.061881824     8.623390556
 H      -13.578648918     7.427629234     8.260899004
 H      -11.432338094     2.865276032     5.994573659
 H      -12.702700115     3.109879985     8.836219067
 H      -10.236581978     2.711788052     9.966225657
 H       -9.097251519     2.430104259    12.095272731
 H      -10.330811339    -1.690066938    12.260650406
 H      -11.495392772    -1.451820419    10.137753578
 H       -9.045163494    -0.863028817    14.022944367
 H       -8.172320165     2.102914218    13.862946453
 H       -8.124366905    -1.187852439    15.796287203
 H       -6.983458910    -1.467302259    17.921037233
 H       -5.716261514     2.692268956    17.742752245
 H       -6.882382169     2.929084730    15.621517577
 H       -9.405237079    10.433716709     7.129966244
 H      -11.108937866    10.905506899     7.215223845
 H       -9.978509007     9.609604854     4.649535622
 H      -10.382505688     8.601281041     6.029609160
 H      -12.482228566    10.597982107     4.973003765
 H      -12.193258166     9.091798775     4.092713405
 H        2.262844938    -1.029968315     0.039809271
 H        2.262104135     0.542483640     0.877368554
 H        2.274411365     0.479434353    -0.906560722
 H       -4.645719007    -1.486172737    21.062060181
 H       -4.668658641    -1.958401669    19.344295158
 H       -6.194400746    -1.861370632    20.265499745
 H       -3.844673454     2.294942173    19.219705817
 C       -2.832460041     1.156141245    20.764018526
 C       -2.829675820     0.602169868    18.319340228
 H       -5.789054184     1.131771245    21.941305194
 C       -6.414724043     2.848893117    20.768354225
 C       -7.782108555     0.788635440    21.146481556
 H      -13.206605740    -1.180813087     8.450312018
 C      -14.386143938     0.331455723     9.467652688
 C      -14.269388737     0.016983239     6.983650683
 H      -11.278293122     0.382698605     5.913211483
 C       -9.351800931     0.800556662     6.832329021
 C      -10.571212658    -1.379967140     6.965598244
 H       -1.971113757    13.625868924    -0.436423801
 C       -3.318189381    15.142933993     0.335364025
 C       -2.166907256    13.398416523     1.716232955
 H       -5.151865349    13.865940340    -1.847688441
 C       -3.612080537    12.813906018    -2.961913500
 C       -5.852433922    11.872428328    -2.353588650
 H       -0.103551981    -1.935260037    -1.515690711
 C       -2.129050624    -1.155405084    -1.576114062
 C       -0.190676243    -0.226688610    -2.855275211
 H       -1.783335292    -0.898008199     1.444528823
 C       -0.198777631    -2.366892538     1.639820899
 C       -0.297319838    -0.173475606     2.849135795
 H       -3.330810733     1.635709221    21.616374537
 H       -1.880665669     1.689441346    20.625132942
 H       -2.569379141     0.132737412    21.062683431
 H       -3.334571933     0.655364320    17.344079382
 H       -2.558447718    -0.447397900    18.494205749
 H       -1.884055560     1.151243415    18.205412401
 H       -5.427616493     3.326867513    20.731903670
 H       -6.952964350     3.321295843    21.603118159
 H       -6.960343035     3.129421135    19.856376086
 H       -7.822230933    -0.281873034    21.385404450
 H       -8.405682500     0.954403253    20.256133657
 H       -8.285599163     1.307071681    21.975084650
 H      -13.902424285     0.240550752    10.450449112
 H      -15.279412803    -0.308103680     9.505393368
 H      -14.750375447     1.363461312     9.370751689
 H      -13.717309956    -0.354763304     6.110933610
 H      -14.586992205     1.046203790     6.762437503
 H      -15.189283263    -0.582004723     7.043470621
 H       -9.381473645     1.893922188     6.730193155
 H       -8.787385365     0.424484222     5.967604152
 H       -8.744194614     0.571072486     7.719794727
 H      -11.517988505    -1.930804933     6.899246800
 H      -10.057577635    -1.701681849     7.882612741
 H       -9.951790314    -1.734946392     6.129076171
 H       -3.708047296    15.461411294    -0.639677355
 H       -2.506639198    15.842167769     0.583861617
 H       -4.106038535    15.310369514     1.083259330
 H       -1.710383467    12.400996860     1.782015605
 H       -2.892236644    13.483604671     2.538637286
 H       -1.366309708    14.118720606     1.935536426
 H       -2.813234675    13.538580668    -2.759143433
 H       -4.025063875    13.080187680    -3.945677095
 H       -3.145100695    11.825988586    -3.084203155
 H       -6.717482356    11.867767844    -1.676547813
 H       -5.513686788    10.832331738    -2.466231555
 H       -6.232920935    12.178998923    -3.338199893
 H       -2.499966910    -1.725203564    -0.714826598
 H       -2.404383705    -1.736087554    -2.468679657
 H       -2.700901560    -0.218608579    -1.633858633
 H        0.894697438    -0.096968873    -2.954398196
 H       -0.656278294     0.761881248    -2.977660191
 H       -0.508496552    -0.825402270    -3.720877242
 H       -0.481962121    -2.971082333     0.768327657
 H       -0.664907360    -2.848590118     2.511768810
 H        0.885942923    -2.466986485     1.778083213
 H       -0.647098104     0.868514670     2.876397978
 H        0.781674622    -0.165589446     3.052568212
 H       -0.769619349    -0.677816005     3.704292865

