187   

Si        0.000000000     0.000000000     0.000000000
 C        1.865195877     0.000000000     0.000000000
 C       -0.668905111     1.715498490     0.000000000
 C        0.078497257     2.769652084     0.536196650
 C       -0.427050023     4.069227576     0.536743585
 C       -1.691357451     4.344236802     0.008972990
 C       -2.441707948     3.286339261    -0.520886492
 C       -1.939939158     1.987574974    -0.522476380
 C       -2.260199899     5.687405450    -0.011597237
 C       -1.647405656     6.785096251     0.463147273
 C       -2.220276884     8.126212766     0.440374428
 C       -3.485392873     8.393200404    -0.089191677
 C       -3.997092323     9.691004263    -0.091766006
 C       -3.253334434    10.747977589     0.439079819
 C       -1.983249160    10.483455507     0.971577085
 C       -1.474092941     9.188081593     0.970103825
Si       -3.878393723    12.479154231     0.462056793
 C       -2.555580036    13.554259560    -0.191998580
 C       -2.082528094    14.674704281     0.368386502
 C       -1.015198919    15.488333170    -0.217444942
 C       -0.591629523    16.645361182     0.450290528
 C        0.415254949    17.445104353    -0.067622460
 C        1.073921327    17.084110417    -1.262116779
 C        0.649454874    15.920934933    -1.932489549
 C       -0.391177875    15.155724967    -1.423263498
 N        2.096676594    17.896118401    -1.788523245
 C        2.867950049    18.715708572    -0.839422053
 C        2.937661445    17.306104464    -2.843664695
 C        3.732835399    17.885185190     0.123914970
 C        4.190327058    18.755729286     1.306186427
 N        5.065789308    18.058564800     2.258598813
 C        4.517996464    17.031360619     3.047647717
 C        3.125701653    16.839077966     3.156036943
 C        2.617610714    15.816018314     3.943045006
 C        3.463475760    14.987873191     4.692904624
 C        4.842950179    15.200445886     4.609055449
 C        5.369161708    16.202770422     3.806939159
 C        6.424169346    17.828192010     1.736144390
 C        2.878972462    13.921913618     5.507970040
 C        3.593895155    13.074819229     6.261502807
Si        2.858479301    11.745162728     7.277632112
 C        1.296738022    11.133298332     6.525691639
 C        1.285163168    10.810003067     5.161314862
 C        0.121448194    10.343988260     4.558000718
 C       -1.051726275    10.169536396     5.304856002
 C       -1.035998350    10.487137522     6.664768983
 C        0.125035243    10.969010776     7.269341348
 C       -2.243838279     9.678847006     4.625786069
 C       -3.437908310     9.478245559     5.208698574
 C       -4.614163934     8.985429727     4.501087977
 C       -4.580141229     8.681058676     3.138043216
 C       -5.715137569     8.211895652     2.482897063
 C       -6.920929950     8.055131828     3.175443036
 C       -6.962647400     8.369961541     4.538242204
 C       -5.821748709     8.831535044     5.192513817
Si       -8.384438795     7.431077946     2.253060995
 C       -7.887770438     6.052236989     1.098454528
 C       -9.728531035     6.834656757     3.457332591
 C       -9.077806400     8.888754931     1.238158806
 C        4.098832496    10.308360330     7.407000929
 C        2.543848499    12.424797829     9.028126263
 C       -5.419811345    12.640591460    -0.643435332
 C       -4.384259735    12.956051113     2.231962233
 C       -0.649388171    -0.923591264    -1.532852516
 C       -0.630901180    -0.902417145     1.552364935
 H        1.073455613     2.616595369     0.963528076
 H        0.175237192     4.872165982     0.958486914
 H       -3.430054272     3.477928758    -0.934285077
 H       -2.572645335     1.202951326    -0.946184400
 H       -3.259104296     5.753001519    -0.452920824
 H       -0.650771339     6.718433819     0.908984740
 H       -4.080936966     7.586912486    -0.512934476
 H       -4.994001742     9.837711874    -0.517135999
 H       -1.355570336    11.276996375     1.393428800
 H       -0.482897103     8.999382853     1.378440020
 H       -2.151102674    13.190774499    -1.152510104
 H       -2.460603516    15.070540454     1.319586410
 H       -1.064956709    16.929279889     1.391001148
 H        0.696732882    18.349049887     0.464322631
 H        1.120717978    15.609607488    -2.859005223
 H       -0.708705037    14.267531059    -1.972642051
 H        3.724639144    18.017088927    -3.144327035
 H        2.317024432    17.121441272    -3.739696117
 H        3.419950221    16.361850449    -2.541611762
 H        6.698289517    18.608298797     1.008010899
 H        6.539927864    16.845350347     1.250383346
 H        7.147097806    17.899891637     2.569572382
 H        2.432692605    17.472480784     2.609904412
 H        1.537518540    15.662828552     3.982298749
 H        5.525012999    14.571498531     5.182948398
 H        6.444900068    16.341076464     3.775030458
 H        1.783416476    13.869087357     5.430864957
 H        4.689289885    13.150796826     6.326408246
 H        2.172255074    10.928097700     4.529912411
 H        0.124964262    10.110269383     3.494513144
 H       -1.934392793    10.361853976     7.265551915
 H        0.076004407    11.202714041     8.336046247
 H       -2.105115301     9.465353397     3.558069874
 H       -3.587717757     9.682312946     6.271378656
 H       -3.653913687     8.799035826     2.571382053
 H       -5.616517023     7.976922864     1.418001976
 H       -7.876792476     8.268614166     5.127856791
 H       -5.872562410     9.069807744     6.252638671
 H        3.504448870    19.417838086    -1.424152487
 H        2.156632707    19.363189905    -0.276136168
 H        3.160560539    17.009149836     0.494122307
 H        4.602314733    17.458583906    -0.405178808
 H        4.734673126    19.654762236     0.935692792
 H        3.309855610    19.150239944     1.866091502
 H        2.263416485    -1.029210916    -0.047447339
 H        2.277215946     0.474474828     0.907619983
 H        2.258623939     0.549738525    -0.874571615
 H       -8.766464445     5.632594562     0.578665314
 H       -7.405714726     5.228546176     1.657335237
 H       -7.174096487     6.394501394     0.329098350
 H       -9.941079932     7.706273543     4.142677657
 C      -11.048774722     6.454026947     2.762404590
 C       -9.264645697     5.650111612     4.324781668
 H       -9.937956293     8.468262091     0.643500900
 C       -9.614757835    10.031739629     2.118812606
 C       -8.051631530     9.474299115     0.249765214
 H        5.021437007    10.740809500     7.892033053
 C        3.590293002     9.154307628     8.288693193
 C        4.505419633     9.744423877     6.033743445
 H        2.029941424    11.596591381     9.596142144
 C        3.836297971    12.784977402     9.783167787
 C        1.617004936    13.654098287     9.022291249
 H       -6.153337516    11.869683991    -0.264790678
 C       -6.094372482    14.020403542    -0.543277660
 C       -5.129247071    12.339294692    -2.124746211
 H       -4.682745116    14.043516119     2.176800620
 C       -5.592382123    12.156434016     2.750356416
 C       -3.235056288    12.828133455     3.246464741
 H       -1.774625485    -0.923121567    -1.442390413
 C       -0.281260851    -0.215536187    -2.849365915
 C       -0.186378605    -2.389742300    -1.607294319
 H       -0.167816714    -1.930542332     1.521127616
 C       -0.185807390    -0.217376157     2.857310641
 C       -2.161168900    -1.067363401     1.577994859
 H      -11.491126828     7.278623405     2.188619824
 H      -11.798836277     6.166396397     3.513485595
 H      -10.946085329     5.594207646     2.087416579
 H       -8.339017835     5.851306700     4.882408840
 H       -9.104283564     4.732376210     3.742951183
 H      -10.030562453     5.409728544     5.075727673
 H      -10.421029404     9.719697035     2.794405540
 H      -10.035479452    10.827709828     1.487867669
 H       -8.831368545    10.503583146     2.729607985
 H       -7.664597070     8.736835329    -0.464397686
 H       -7.192451396     9.937951246     0.758532469
 H       -8.519003175    10.267735015    -0.350643480
 H        3.363861636     9.459263427     9.318475306
 H        4.357007720     8.369680454     8.362007152
 H        2.692650535     8.667632977     7.880836015
 H        4.909931182    10.504250914     5.351412078
 H        3.675777466     9.239914275     5.518394875
 H        5.293945090     8.988376935     6.156145233
 H        4.514629778    11.932686965     9.916284563
 H        3.592878886    13.142695257    10.794086406
 H        4.402445712    13.593605486     9.300431156
 H        0.647784438    13.473328884     8.538271808
 H        2.071514001    14.525734641     8.528308331
 H        1.394134089    13.964312425    10.052640901
 H       -6.431021529    14.267170611     0.472159010
 H       -6.990826575    14.048628317    -1.178774286
 H       -5.448407502    14.839833040    -0.888414057
 H       -4.656480153    11.362500884    -2.293027142
 H       -4.489540159    13.099731730    -2.594260617
 H       -6.066649268    12.330632324    -2.698504919
 H       -6.492746059    12.265199709     2.134113868
 H       -5.866075826    12.498113439     3.758780510
 H       -5.385724121    11.078332922     2.847791266
 H       -2.327204366    13.376909821     2.964816182
 H       -2.946372075    11.781988610     3.430839556
 H       -3.547351907    13.226867612     4.222100361
 H       -0.624488423     0.827942928    -2.892775764
 H       -0.752299090    -0.729763796    -3.699070465
 H        0.798707293    -0.215823911    -3.048595685
 H       -0.479872359    -2.983254506    -0.731789605
 H        0.899996912    -2.490463892    -1.730940369
 H       -0.641225809    -2.882903572    -2.478646166
 H        0.903986358    -0.134892110     2.957190409
 H       -0.530186417    -0.799318754     3.724334493
 H       -0.609592859     0.790435863     2.976651855
 H       -2.552008964    -1.638952715     0.726811754
 H       -2.694002637    -0.106167164     1.611042074
 H       -2.465041248    -1.616542416     2.481030464

