187   

Si        0.000000000     0.000000000     0.000000000
 C        1.865112820     0.000000000     0.000000000
 C       -0.673253201     1.713646446     0.000000000
 C        0.102137332     2.789491896    -0.444513665
 C       -0.414110395     4.085167662    -0.441840119
 C       -1.716356831     4.334410377    -0.000705249
 C       -2.493991721     3.254693501     0.438743117
 C       -1.981758228     1.960251437     0.436643484
 C       -2.299107621     5.671921523     0.020308243
 C       -1.665862440     6.790256655    -0.372546705
 C       -2.251711095     8.126546473    -0.350222782
 C       -3.554710013     8.370043574     0.092014389
 C       -4.075884960     9.663622501     0.096794403
 C       -3.309262055    10.740734465    -0.357322387
 C       -2.003235284    10.499038242    -0.804937196
 C       -1.481183532     9.208688585    -0.796451769
Si       -3.963108768    12.459590838    -0.365725834
 C       -3.386929817    13.389667407    -1.833841632
 C       -3.118518803    12.795372380    -3.004028016
 C       -2.655921496    13.489475251    -4.207640523
 C       -2.417108670    12.725204810    -5.360236915
 C       -1.978395355    13.321993735    -6.530799172
 C       -1.781823100    14.714065309    -6.578028361
 C       -2.006685109    15.481687789    -5.429622280
 C       -2.421891260    14.865925116    -4.251907853
 N       -1.328059481    15.245634443    -7.825111603
 C       -2.387264448    15.247203158    -8.860147177
 C       -0.617058062    16.532522768    -7.731421285
 C       -3.482065658    16.312157048    -8.655065064
 C       -4.905131943    15.790130689    -8.928879541
 N       -5.555826835    15.086668780    -7.803977654
 C       -5.513995007    15.730994647    -6.552144613
 C       -5.615305104    17.137985224    -6.491742926
 C       -5.576415346    17.791358931    -5.271304090
 C       -5.478991989    17.077170444    -4.068986975
 C       -5.420476909    15.682511661    -4.128196444
 C       -5.457327418    15.012282791    -5.343835972
 C       -5.317478420    13.633797124    -7.803932766
 C       -5.442133649    17.823706286    -2.811859211
 C       -5.350719076    17.259134660    -1.600399419
Si       -5.305562232    18.204006188    -0.036360906
 C       -4.533279116    19.857420288    -0.264919448
 C       -3.531554994    20.028375233    -1.227909097
 C       -2.934649519    21.273579320    -1.415619699
 C       -3.312151412    22.371270413    -0.636644154
 C       -4.307645296    22.195525763     0.333096609
 C       -4.910404323    20.953653817     0.519221341
 C       -2.714574602    23.692630798    -0.798383793
 C       -1.753967050    23.993525694    -1.688741359
 C       -1.155599232    25.314366865    -1.851479340
 C       -1.535088773    26.414503742    -1.078277865
 C       -0.936212830    27.659953085    -1.267608134
 C        0.049835970    27.834226461    -2.243561237
 C        0.430219689    26.732846289    -3.022472042
 C       -0.164020656    25.489455430    -2.826322871
Si        0.850593386    29.470769053    -2.506891697
 C       -0.039823832    30.827420566    -1.586782645
 C        2.652765635    29.405026520    -1.897389037
 C        0.853632142    29.834490684    -4.375370254
 C       -7.069194203    18.378464219     0.649680429
 C       -4.254169016    17.209608861     1.198905615
 C       -5.866638379    12.421573698    -0.383144220
 C       -3.375383570    13.365765191     1.196661203
 C       -0.626553377    -0.911019367    -1.549090716
 C       -0.650752664    -0.915637652     1.537207569
 H        1.127840240     2.657039626    -0.799760166
 H        0.211204495     4.905639236    -0.789214687
 H       -3.511229434     3.426635444     0.785506782
 H       -2.636313251     1.158207441     0.789020670
 H       -3.327570255     5.716242880     0.390843850
 H       -0.637416822     6.747325896    -0.742815029
 H       -4.175471258     7.547479640     0.442223863
 H       -5.098379663     9.790826700     0.462425968
 H       -1.357910047    11.304593625    -1.172100437
 H       -0.463445340     9.040971358    -1.144290069
 H       -3.285049594    14.477153958    -1.700714096
 H       -3.220707460    11.709677251    -3.152605795
 H       -2.569882223    11.645847519    -5.334763488
 H       -1.765401329    12.722006591    -7.413333875
 H       -1.866722769    16.559018526    -5.447049345
 H       -2.587087500    15.479626213    -3.364256552
 H       -0.151522457    16.746483085    -8.709127084
 H        0.198482833    16.440492807    -6.992344457
 H       -1.247952166    17.390290882    -7.452859724
 H       -5.372751509    13.241287804    -8.831856926
 H       -6.122310028    13.138944300    -7.229085189
 H       -4.344494661    13.345733255    -7.368589846
 H       -5.725635411    17.716434838    -7.403990044
 H       -5.635839483    18.880298530    -5.249454916
 H       -5.347401370    15.096403426    -3.208908781
 H       -5.402961791    13.927260538    -5.342193332
 H       -5.496382379    18.912336705    -2.956657261
 H       -5.306451581    16.165501560    -1.481375635
 H       -3.189199745    19.203017953    -1.862434062
 H       -2.164584083    21.383509092    -2.176904958
 H       -4.615838083    23.037082788     0.950542907
 H       -5.681860308    20.877669947     1.290180943
 H       -3.109084203    24.458977967    -0.124722354
 H       -1.359429129    23.226861201    -2.361941619
 H       -2.304394090    26.306897786    -0.315824180
 H       -1.272425805    28.482129025    -0.629773023
 H        1.194149623    26.810027434    -3.801371308
 H        0.145886748    24.645631932    -3.439703488
 H       -1.884267205    15.395625890    -9.841644708
 H       -2.833379994    14.228869201    -8.894919979
 H       -3.427250359    16.707434449    -7.618431459
 H       -3.282331450    17.183719605    -9.304353986
 H       -5.568407884    16.648182099    -9.197344770
 H       -4.907675707    15.124635481    -9.819346390
 H        2.263246434    -1.028966981     0.055061170
 H        2.259473631     0.555965259     0.870239363
 H        2.276331312     0.467073823    -0.911838447
 H        0.423363286    31.811119734    -1.782177950
 H       -0.020579054    30.661989768    -0.495282250
 H       -1.097638812    30.891201356    -1.900233530
 H        3.052998179    30.453020032    -2.019568354
 C        2.757308638    29.024325663    -0.409086934
 C        3.549097496    28.455732435    -2.712412384
 H        1.442271099    28.997474964    -4.852118039
 C       -0.561760518    29.817765885    -4.980589195
 C        1.540485436    31.162104368    -4.741742578
 H       -6.971490550    18.937196781     1.625032206
 C       -7.975361423    19.200812627    -0.283868403
 C       -7.748427863    17.029156829     0.944398551
 H       -4.755109983    16.201734732     1.290552056
 C       -2.818182462    16.991807383     0.689256912
 C       -4.198526974    17.839964978     2.600415535
 H       -6.166925659    11.812542860     0.518035843
 C       -6.523344096    13.806051743    -0.255205228
 C       -6.420596070    11.726688055    -1.640260526
 H       -3.771341168    14.421133766     1.113456577
 C       -3.924381230    12.753469936     2.496284925
 C       -1.840645924    13.439455912     1.286002287
 H       -0.155660196    -1.935665800    -1.514721281
 C       -2.155384710    -1.088428367    -1.574846606
 C       -0.186494669    -0.227005944    -2.856380401
 H       -1.775576491    -0.921505228     1.441953694
 C       -0.179916531    -2.378402504     1.625013635
 C       -0.292322590    -0.194263365     2.849095437
 H        2.208890582    29.704323961     0.255437641
 H        3.807198246    29.058267336    -0.084344789
 H        2.404903322    28.003150400    -0.203856196
 H        3.589785078    28.703281268    -3.780631836
 H        3.249276005    27.402390036    -2.620317690
 H        4.584635542    28.511245446    -2.345780581
 H       -1.095884044    28.872333408    -4.808340776
 H       -0.507045287    29.944732878    -6.071209640
 H       -1.198687152    30.630243727    -4.606522832
 H        2.583271285    31.220011434    -4.403848195
 H        1.012013049    32.040534608    -4.348220738
 H        1.564650441    31.282796033    -5.834622978
 H       -7.588451205    20.207820813    -0.493025588
 H       -8.964128043    19.341097529     0.174852053
 H       -8.151403629    18.707887973    -1.251308555
 H       -7.205305234    16.420322299     1.678487330
 H       -7.896805382    16.419972922     0.041310162
 H       -8.749349067    17.197533741     1.367253283
 H       -2.771776556    16.495504361    -0.290383786
 H       -2.262626238    16.348846200     1.387840738
 H       -2.245632061    17.927284598     0.614683356
 H       -5.184139568    17.943565165     3.071620835
 H       -3.720143065    18.829711704     2.606824934
 H       -3.601195785    17.208288151     3.273925317
 H       -6.205928358    14.360223062     0.637421094
 H       -7.614919412    13.698032864    -0.175710726
 H       -6.345470495    14.443733376    -1.133304905
 H       -6.054442081    10.699468944    -1.770961167
 H       -6.197272012    12.276553251    -2.566579053
 H       -7.515727492    11.655281349    -1.580935517
 H       -5.020631029    12.751007404     2.548643417
 H       -3.577156792    13.335408452     3.362529215
 H       -3.579762441    11.723249929     2.664450737
 H       -1.376190452    13.929468252     0.419099208
 H       -1.370660549    12.452132811     1.401025552
 H       -1.541325983    14.022753813     2.168575981
 H       -2.542021249    -1.659874227    -0.721528253
 H       -2.453892669    -1.644143825    -2.475699945
 H       -2.695995784    -0.131977376    -1.612740976
 H        0.902668881    -0.134892898    -2.955472675
 H       -0.618889707     0.776387527    -2.979731859
 H       -0.524475348    -0.815409047    -3.721489940
 H       -0.461753756    -2.979370390     0.750835681
 H       -0.639797360    -2.868692927     2.495456674
 H        0.905919160    -2.471721576     1.759214563
 H       -0.644245211     0.846769603     2.882731815
 H        0.786834909    -0.184491940     3.052301103
 H       -0.762687570    -0.705263172     3.701222413

