187   

Si        0.000000000     0.000000000     0.000000000
 C        1.865370439     0.000000000     0.000000000
 C       -0.677810527     1.711628604     0.000000000
 C        0.141086448     2.812955656     0.268329760
 C       -0.384108677     4.105104655     0.265443427
 C       -1.738225465     4.325589430     0.000981670
 C       -2.558331682     3.220637975    -0.264492639
 C       -2.036614023     1.930042581    -0.265113770
 C       -2.330773618     5.658999174    -0.012556129
 C       -1.656870619     6.797751972     0.222201048
 C       -2.248674621     8.131464771     0.208843630
 C       -1.426429530     9.235364904     0.471688445
 C       -1.946242755    10.527245908     0.469903464
 C       -3.306652130    10.742937543     0.219065272
 C       -4.130539417     9.642898948    -0.042089019
 C       -3.603957469     8.351998872    -0.052173724
Si       -4.009330135    12.442638431     0.213024358
 C       -5.803294503    12.365733579     0.548244181
 C       -6.763654034    12.961899116    -0.169561600
 C       -8.192173029    12.870889327     0.139283774
 C       -9.101884512    13.542459701    -0.691086493
 C      -10.463455927    13.491853815    -0.447592307
 C      -10.966684101    12.708214123     0.609491477
 C      -10.061847380    12.026958037     1.436568041
 C       -8.692361323    12.128661057     1.210090156
 N      -12.373726696    12.693375947     0.813760509
 C      -13.143124549    12.297237825    -0.387788191
 C      -12.842148286    12.005941175     2.029778513
 C      -12.681738596    10.961018443    -0.996886382
 C      -13.416738949    10.599016291    -2.298445395
 N      -13.372229046    11.608329516    -3.378743212
 C      -12.146308790    12.293532127    -3.535045669
 C      -10.957247476    11.538305854    -3.617099571
 C       -9.735921895    12.173807408    -3.770507447
 C       -9.657424469    13.569025961    -3.901478451
 C      -10.840714830    14.309199055    -3.851803181
 C      -12.072152504    13.688850814    -3.677176414
 C      -14.596870244    12.422078173    -3.457146352
 C       -8.344632255    14.200113808    -4.061724635
 C       -8.171847273    15.521662273    -4.193563958
Si       -6.586105695    16.404523115    -4.397908520
 C       -6.685257685    17.558170108    -5.824394133
 C       -7.660665996    17.379630438    -6.812746048
 C       -7.736240010    18.253860318    -7.894265403
 C       -6.835064776    19.319141178    -8.019703290
 C       -5.858357782    19.490536591    -7.034142233
 C       -5.782118219    18.619484296    -5.948333359
 C       -6.955157082    20.207723565    -9.170933804
 C       -6.160431418    21.265075794    -9.408378106
 C       -6.281685346    22.152853411   -10.560100315
 C       -7.257849783    21.981302749   -11.544830290
 C       -7.337853719    22.854190009   -12.629870764
 C       -6.444763224    23.923458620   -12.750009235
 C       -5.464770995    24.098146477   -11.763228300
 C       -5.384112140    23.222016764   -10.684509460
Si       -6.537052846    25.084312850   -14.175796650
 C       -8.128958003    24.878691356   -15.126108038
 C       -6.393463674    26.861313390   -13.508554123
 C       -5.076957407    24.760643328   -15.353321279
 C       -6.268880177    17.399523626    -2.804289847
 C       -5.148392504    15.189843769    -4.644843751
 C       -3.175014445    13.536820354     1.521228341
 C       -3.683323155    13.173544158    -1.515111233
 C       -0.657139200    -0.901029524    -1.542680786
 C       -0.610969715    -0.925382450     1.547014776
 H        1.207798791     2.703714616     0.482617158
 H        0.275565465     4.945494880     0.473895358
 H       -3.615910803     3.370242063    -0.473354922
 H       -2.724384362     1.107630008    -0.481159605
 H       -3.401735393     5.681456953    -0.234450537
 H       -0.585901348     6.774844754     0.444177553
 H       -0.368514684     9.084662752     0.677759444
 H       -1.256913542    11.350324709     0.676655406
 H       -5.200877560     9.755054743    -0.245104276
 H       -4.263234657     7.511820700    -0.262051963
 H       -6.050785956    11.770472837     1.442942820
 H       -6.552937842    13.567241737    -1.062310948
 H       -8.733435556    14.134242935    -1.533533503
 H      -11.148221752    14.048037625    -1.086416515
 H      -10.413874172    11.413140509     2.259208224
 H       -8.008347708    11.602745198     1.876959138
 H      -13.922661425    12.194532614     2.152275021
 H      -12.339929185    12.444177857     2.910929646
 H      -12.675814264    10.917963864     2.028169512
 H      -15.472875893    11.751941713    -3.503645436
 H      -14.592611598    12.998057873    -4.400445864
 H      -14.733728808    13.118130368    -2.615026962
 H      -11.001892730    10.454258056    -3.552759252
 H       -8.824039531    11.576010560    -3.801204743
 H      -10.809963694    15.395858383    -3.949993968
 H      -12.966379860    14.302227155    -3.634173732
 H       -7.513457716    13.483801342    -4.068834936
 H       -9.036161727    16.208655985    -4.177484524
 H       -8.387118593    16.561544951    -6.769874860
 H       -8.504030646    18.103024901    -8.650919662
 H       -5.145889412    20.309993337    -7.108050971
 H       -4.997975196    18.804088415    -5.208829959
 H       -7.764748177    19.953903799    -9.861616108
 H       -5.350678125    21.519112672    -8.718127923
 H       -7.967517512    21.159075976   -11.473070132
 H       -8.122273290    22.668127773   -13.368627383
 H       -4.740309145    24.916472627   -11.804211774
 H       -4.615127715    23.372913078    -9.929211627
 H      -14.221002395    12.258587946    -0.125356832
 H      -13.030961689    13.117793671    -1.135150168
 H      -11.587564351    11.007366702    -1.187929548
 H      -12.815746046    10.143885741    -0.264311730
 H      -12.968591461     9.665426516    -2.719083181
 H      -14.478038334    10.353759186    -2.075288729
 H        2.263068588    -1.029916442    -0.038863245
 H        2.275154736     0.480453653     0.905684721
 H        2.261462418     0.541579739    -0.878230634
 H       -8.194678903    25.606447961   -15.954606644
 H       -9.004854524    25.041125205   -14.472000774
 H       -8.217204394    23.868740008   -15.563329527
 H       -5.390576908    26.917906875   -12.993271602
 C       -6.417862232    27.935084840   -14.610816516
 C       -7.477514874    27.188203612   -12.465570162
 H       -5.227011716    25.462893547   -16.223802154
 C       -3.702079854    25.062075280   -14.730500221
 C       -5.066225495    23.320682201   -15.898280169
 H       -5.282756914    17.924704977    -2.960254835
 C       -7.345340002    18.473194611    -2.563693230
 C       -6.149635290    16.522193215    -1.546741873
 H       -5.206808095    14.467961745    -3.776462928
 C       -5.272509603    14.383320988    -5.949533624
 C       -3.764786889    15.862754353    -4.609209522
 H       -2.080697800    13.573304239     1.248227700
 C       -3.712349711    14.979344642     1.526618294
 C       -3.290494661    12.951115509     2.939740938
 H       -4.256925061    14.145145611    -1.562553854
 C       -2.200353381    13.487349229    -1.777250477
 C       -4.201466462    12.249686072    -2.632832522
 H       -1.781807783    -0.901323631    -1.444522002
 C       -0.299194233    -0.170252589    -2.849402439
 C       -0.193050676    -2.364987301    -1.643219735
 H       -0.112765868    -1.937329604     1.512288127
 C       -0.190078905    -0.230691466     2.855081660
 C       -2.134005605    -1.145865980     1.574292387
 H       -5.624483402    27.808989034   -15.358804828
 H       -6.266970203    28.930462242   -14.168029803
 H       -7.376549501    27.979374330   -15.144367985
 H       -7.485883744    26.491012861   -11.615433840
 H       -8.490275954    27.204499135   -12.889512483
 H       -7.303593869    28.187331365   -12.041213725
 H       -3.594305056    26.100790846   -14.393558513
 H       -2.909182231    24.897862309   -15.474850067
 H       -3.464588821    24.404791205   -13.882152896
 H       -5.985628970    23.049104131   -16.432672893
 H       -4.903256423    22.568209248   -15.113208057
 H       -4.244785989    23.196420723   -16.618438180
 H       -7.467192364    19.167603883    -3.406411485
 H       -7.072966199    19.092272089    -1.696956390
 H       -8.332783165    18.046758648    -2.338485667
 H       -5.331944186    15.791416208    -1.604156359
 H       -7.075471242    15.975794919    -1.313690676
 H       -5.938547052    17.148426701    -0.667877822
 H       -6.219731148    13.834182010    -6.040207458
 H       -4.472344367    13.632008450    -6.008545425
 H       -5.171061381    15.008863865    -6.848151859
 H       -3.550587896    16.369123826    -3.659276764
 H       -3.620494360    16.590968611    -5.419450940
 H       -2.976349828    15.106532966    -4.738224325
 H       -3.591801392    15.493119593     0.563963208
 H       -3.166737356    15.581218060     2.267214828
 H       -4.774325945    15.038212503     1.806306776
 H       -2.887180105    11.932331680     3.025310608
 H       -4.324336615    12.931070843     3.311670455
 H       -2.720100636    13.566911511     3.649674771
 H       -1.776429963    14.212966805    -1.071658659
 H       -2.081692420    13.928436427    -2.778214506
 H       -1.563512893    12.591892099    -1.761270545
 H       -5.281221261    12.054430984    -2.572040981
 H       -3.691793811    11.275541141    -2.653863160
 H       -4.018955028    12.705442862    -3.617586249
 H       -0.651582547     0.870926791    -2.874692844
 H       -0.770798888    -0.674462275    -3.704895065
 H        0.779614824    -0.159123930    -3.053743904
 H       -0.477424442    -2.972141710    -0.774137540
 H        0.892332857    -2.461965506    -1.778404808
 H       -0.655124471    -2.845619396    -2.517841975
 H        0.896071172    -0.107928478     2.954550237
 H       -0.511822661    -0.828926933     3.719613146
 H       -0.649645552     0.760524094     2.979012032
 H       -2.508147232    -1.712198543     0.712140384
 H       -2.700271113    -0.205659452     1.632881457
 H       -2.413086103    -1.726187392     2.465916299

