187   

Si        0.000000000     0.000000000     0.000000000
 C        1.865465479     0.000000000     0.000000000
 C       -0.679255893     1.710967993     0.000000000
 C        0.148864722     2.819283318     0.202762713
 C       -0.379798214     4.110108267     0.200171787
 C       -1.746465868     4.322015367     0.001877318
 C       -2.575600573     3.210145066    -0.199012333
 C       -2.050377292     1.921066952    -0.201263242
 C       -2.343800199     5.653294247    -0.008849965
 C       -1.663150504     6.798679069     0.166601611
 C       -2.260430944     8.130040149     0.155887699
 C       -3.627806234     8.340462062    -0.042607227
 C       -4.157209025     9.630703059    -0.045348336
 C       -3.324087759    10.738610045     0.134028914
 C       -1.952021373    10.532733883     0.330627010
 C       -1.429775252     9.242486300     0.346478588
Si       -3.989792960    12.453064624     0.135715245
 C       -2.697704609    13.580165784    -0.495798175
 C       -2.288289116    14.715065155     0.084026128
 C       -1.244901038    15.583011143    -0.468263073
 C       -0.901883229    16.749124962     0.233395330
 C        0.077858410    17.604232755    -0.244986371
 C        0.762462884    17.287614653    -1.430192424
 C        0.431179971    16.125280812    -2.134102925
 C       -0.574138021    15.289319544    -1.656886944
 N        1.760081958    18.225902766    -1.854398262
 C        3.018315690    18.051022332    -1.092667759
 C        1.973500865    18.278547821    -3.311522527
 C        3.787376430    16.752747555    -1.413572331
 C        4.687811487    16.303011328    -0.246815737
 N        4.126743003    15.220979256     0.589359145
 C        2.974524496    15.559276063     1.338889453
 C        3.014470068    16.720358782     2.138334835
 C        1.909889159    17.088935382     2.888031316
 C        0.757066756    16.290541429     2.918220059
 C        0.737005452    15.118880786     2.157780129
 C        1.831002834    14.745419373     1.385683658
 C        4.083422290    13.929552613    -0.118368976
 C       -0.378741027    16.731589197     3.728565893
 C       -1.534275232    16.062801129     3.842429320
Si       -2.935215879    16.643866977     4.865501988
 C       -2.959675300    18.480673352     4.949216793
 C       -2.587504558    19.220045374     3.819376587
 C       -2.595487755    20.612782014     3.850680172
 C       -2.987487807    21.298627043     5.004269095
 C       -3.366952251    20.556896091     6.130152260
 C       -3.355034234    19.163830747     6.104045534
 C       -3.010786744    22.755670679     5.080856766
 C       -2.670983106    23.577715025     4.073432004
 C       -2.692554948    25.034886470     4.144879200
 C       -3.077780006    25.728334620     5.295034551
 C       -3.083340133    27.123011547     5.318508883
 C       -2.696827453    27.854934190     4.191422152
 C       -2.309510179    27.161590959     3.036608616
 C       -2.310364069    25.769787723     3.014369138
Si       -2.698468151    29.695852600     4.205734674
 C       -2.879949860    30.369182737     5.935957357
 C       -1.067103431    30.299388740     3.432278277
 C       -4.144141305    30.337016186     3.146265022
 C       -4.549587099    16.064534207     4.040080652
 C       -2.811855443    15.867036897     6.593655628
 C       -5.541508926    12.608339531    -0.944793012
 C       -4.431800069    12.885995758     1.936129183
 C       -0.660826470    -0.896598999    -1.543419255
 C       -0.602620278    -0.930095208     1.547825263
 H        1.225392764     2.716609068     0.364996274
 H        0.286978482     4.955929201     0.357455225
 H       -3.643040397     3.353200799    -0.356126687
 H       -2.745585141     1.093000928    -0.366264742
 H       -3.424924028     5.668246870    -0.175010147
 H       -0.582019171     6.783942449     0.333045537
 H       -4.294312210     7.493467173    -0.194129273
 H       -5.234791640     9.733341425    -0.198632106
 H       -1.254797293    11.365462341     0.475354404
 H       -0.362624457     9.099026107     0.505371425
 H       -2.262441117    13.242001805    -1.451653645
 H       -2.702283819    15.084290549     1.032591800
 H       -1.414402190    16.993100439     1.167064008
 H        0.330414552    18.517642480     0.292350973
 H        0.948660967    15.870438936    -3.053751037
 H       -0.826489157    14.391171645    -2.221034662
 H        2.608728486    19.152565030    -3.537602731
 H        1.002326700    18.439300737    -3.811586535
 H        2.445882681    17.384647172    -3.744137550
 H        5.067698428    13.732938150    -0.576378504
 H        3.315650935    13.872040852    -0.906430598
 H        3.902838241    13.122254627     0.614457226
 H        3.914931113    17.328247832     2.166365429
 H        1.948055136    18.005375497     3.478452015
 H       -0.149219698    14.480600852     2.158174735
 H        1.768125456    13.835876579     0.796082010
 H       -0.195211385    17.688905221     4.238832921
 H       -1.692856776    15.098108929     3.337370442
 H       -2.275651306    18.738364822     2.885613556
 H       -2.294969399    21.165556887     2.962023687
 H       -3.675561180    21.071491061     7.038115173
 H       -3.660428400    18.638736275     7.012870434
 H       -3.334221028    23.159093165     6.044648091
 H       -2.348567703    23.172654318     3.109448438
 H       -3.379339776    25.181925478     6.186744662
 H       -3.396162782    27.609606294     6.246492815
 H       -1.997252941    27.680745055     2.125985000
 H       -2.008706879    25.248937665     2.107490329
 H        3.656621372    18.938707417    -1.291294658
 H        2.757672308    18.084120859    -0.008071372
 H        3.066743643    15.947683978    -1.660139679
 H        4.394884519    16.893723060    -2.324548727
 H        5.665863139    15.942185714    -0.640446717
 H        4.935944793    17.164140306     0.412901249
 H        2.263120696    -1.030215899    -0.030279975
 H        2.274078166     0.487784994     0.902397700
 H        2.262328422     0.534261354    -0.882262401
 H       -2.834070543    31.472937806     5.939704826
 H       -2.069784345    30.001477312     6.591530585
 H       -3.841901401    30.074999404     6.390945337
 H       -1.052935347    29.887516695     2.381281078
 C       -0.960829180    31.831856217     3.339317594
 C        0.170401750    29.754110196     4.167890542
 H       -4.118957659    31.460684312     3.245759933
 C       -4.017076416    29.988593014     1.652459788
 C       -5.511394556    29.842684733     3.652965854
 H       -4.452902046    14.945372784     3.922120266
 C       -5.799705351    16.344130680     4.891505407
 C       -4.750626858    16.680457225     2.643924938
 H       -3.699018863    16.251482928     7.175219146
 C       -2.889545627    14.329481515     6.572786614
 C       -1.532468771    16.292985942     7.335619649
 H       -6.300276889    11.896600665    -0.507155967
 C       -6.147466793    14.023389656    -0.919349538
 C       -5.289791275    12.195487065    -2.405744919
 H       -4.624343871    13.998947043     1.949480451
 C       -5.699782112    12.179914430     2.445019302
 C       -3.272108579    12.578827572     2.901376555
 H       -1.785899548    -0.881564796    -1.450457981
 C       -0.287703651    -0.173366517    -2.850173544
 C       -0.214835535    -2.366435522    -1.638564856
 H       -0.088679571    -1.934343665     1.516213299
 C       -0.193868146    -0.225574260     2.854569934
 C       -2.121843301    -1.174535820     1.574936478
 H       -1.776983524    32.290468547     2.766215689
 H       -0.029699638    32.112791776     2.825863710
 H       -0.927509890    32.319319367     4.322699772
 H        0.191784340    28.656407553     4.226448927
 H        0.267189275    30.141716696     5.190723519
 H        1.086029253    30.050757936     3.636698012
 H       -3.101996710    30.379033061     1.189600750
 H       -4.855081760    30.428442586     1.092142379
 H       -4.057480090    28.906810280     1.461943333
 H       -5.719724440    30.124816249     4.692996145
 H       -5.626898689    28.751985349     3.574604399
 H       -6.318410162    30.281209727     3.048590096
 H       -5.777930162    15.854091051     5.873133039
 H       -6.696368581    15.964983680     4.380050363
 H       -5.974712622    17.416397593     5.058382067
 H       -3.914226477    16.495752834     1.955413362
 H       -4.914236155    17.767513554     2.678213729
 H       -5.644618489    16.253073125     2.167561053
 H       -3.823424904    13.947044359     6.141303089
 H       -2.844919770    13.937709466     7.599413529
 H       -2.051551861    13.865994844     6.033157924
 H       -1.430068433    17.381683991     7.442425764
 H       -0.616055835    15.921657910     6.853690496
 H       -1.531871008    15.882906834     8.355317753
 H       -6.428499369    14.359515606     0.087237597
 H       -7.067881866    14.049119864    -1.520007733
 H       -5.479043223    14.782781838    -1.350374738
 H       -4.889750930    11.177235860    -2.509689718
 H       -4.605109803    12.876111185    -2.930775593
 H       -6.232976349    12.213100686    -2.970374269
 H       -6.597757665    12.422215703     1.862672250
 H       -5.913596814    12.489601827     3.478624293
 H       -5.601691872    11.085629816     2.468577575
 H       -2.340431865    13.103025720     2.647264517
 H       -3.039122492    11.505378256     2.960161429
 H       -3.536052275    12.885244781     3.923957043
 H       -0.625495903     0.872519889    -2.878810310
 H       -0.763342155    -0.672510026    -3.706424253
 H        0.791870153    -0.178037185    -3.050463138
 H       -0.510529671    -2.967907715    -0.769260990
 H        0.869823152    -2.477365017    -1.768676708
 H       -0.679104603    -2.843379494    -2.514044260
 H        0.890143823    -0.085451133     2.954786562
 H       -0.507055426    -0.826537996     3.720342569
 H       -0.668720448     0.758763606     2.975544344
 H       -2.489432385    -1.735983070     0.706812763
 H       -2.702062423    -0.243913525     1.646535329
 H       -2.389967698    -1.769873652     2.460070044

