187   

Si        0.000000000     0.000000000     0.000000000
 C        1.865440409     0.000000000     0.000000000
 C       -0.675010391     1.712786479     0.000000000
 C        0.156018962     2.816941024     0.213754053
 C       -0.367347435     4.109721829     0.211410762
 C       -1.731584773     4.327938072     0.003310479
 C       -2.563612060     3.220400626    -0.208325402
 C       -2.043535994     1.929138583    -0.211489116
 C       -2.321698914     5.662413835    -0.007226478
 C       -1.634344272     6.802248881     0.177722664
 C       -2.221897996     8.137420372     0.167647111
 C       -3.585928488     8.358362064    -0.040244820
 C       -4.105498180     9.652519884    -0.041881786
 C       -3.268241032    10.753371528     0.161035247
 C       -1.899731747    10.536099572     0.371270570
 C       -1.385617626     9.242499786     0.377268964
Si       -3.914049121    12.474711811     0.166087232
 C       -2.714033858    13.513755129    -0.739865915
 C       -2.186416174    14.670840722    -0.320531207
 C       -1.225930647    15.456776488    -1.099024218
 C       -0.737007589    16.656586854    -0.561466035
 C        0.172676078    17.432927328    -1.261447340
 C        0.608524455    17.031922873    -2.539337425
 C        0.144507099    15.820319624    -3.068727784
 C       -0.734314151    15.030513946    -2.335614733
 N        1.542643661    17.870524184    -3.207631618
 C        1.042925487    19.232986992    -3.492784335
 C        2.225037945    17.264559463    -4.364635721
 C       -0.122258054    19.304788454    -4.498838068
 C       -1.489464802    19.433975082    -3.796975822
 N       -2.645951037    18.990016760    -4.609311590
 C       -2.668416913    17.561856570    -4.742640012
 C       -3.238465870    16.852846697    -3.672344470
 C       -3.300878105    15.469349078    -3.718845786
 C       -2.832479640    14.764037953    -4.838591781
 C       -2.286791384    15.480332157    -5.905794822
 C       -2.205822425    16.869498938    -5.866197652
 C       -2.773160403    19.723450378    -5.881076788
 C       -2.923105813    13.301345007    -4.833762692
 C       -2.510637396    12.521784814    -5.840793492
Si       -2.598717390    10.694871408    -5.889787154
 C       -0.948299544    10.040709419    -6.371197222
 C        0.203208630    10.769995648    -6.052327524
 C        1.462859537    10.291430760    -6.408317438
 C        1.600961528     9.069415176    -7.072970196
 C        0.446818024     8.337843819    -7.381924066
 C       -0.814524446     8.816218946    -7.034913874
 C        2.898968800     8.529855043    -7.464632926
 C        4.078835658     9.128788458    -7.229602211
 C        5.376830306     8.589483165    -7.621125715
 C        5.516146194     7.372004258    -8.292286501
 C        6.777139924     6.893623126    -8.647935669
 C        7.928893812     7.621360968    -8.332757014
 C        7.792074717     8.842441234    -7.658445398
 C        6.531778080     9.319902031    -7.309945320
Si        9.600163651     7.003816866    -8.795062268
 C        9.549036798     5.215613452    -9.323769086
 C       10.285916356     8.046654624   -10.232446136
 C       10.750461816     7.213216770    -7.292762762
 C       -2.985353870    10.001011080    -4.159925371
 C       -3.950494005    10.156141962    -7.105796273
 C       -5.604158687    12.594553856    -0.699452687
 C       -4.127688076    13.056237558     1.963058773
 C       -0.660642877    -0.894616143    -1.544654178
 C       -0.606539559    -0.928986729     1.546637093
 H        1.231074967     2.709518706     0.383323303
 H        0.302292630     4.952426560     0.375127961
 H       -3.629032626     3.368205116    -0.373626513
 H       -2.740403477     1.104546374    -0.385948558
 H       -3.401350147     5.683971320    -0.180584739
 H       -0.553961657     6.779310810     0.349999863
 H       -4.256982640     7.517276665    -0.202732953
 H       -5.180832205     9.762530639    -0.205602720
 H       -1.198832317    11.362807790     0.531475878
 H       -0.320318777     9.090313014     0.542755650
 H       -2.433443860    13.085400516    -1.719179090
 H       -2.440611774    15.127441263     0.643987637
 H       -1.076658678    16.987631993     0.419512919
 H        0.562895623    18.348214803    -0.822953950
 H        0.456787226    15.485533079    -4.054186234
 H       -1.059850645    14.076307840    -2.758260215
 H        3.043430082    17.932731929    -4.683698398
 H        1.574019226    17.074201701    -5.232243494
 H        2.687512101    16.310724173    -4.053515215
 H       -2.932700989    20.791211455    -5.651541907
 H       -3.670611941    19.363049562    -6.414002619
 H       -1.909174045    19.638465520    -6.555891533
 H       -3.616356173    17.399356502    -2.809262887
 H       -3.731406335    14.927642595    -2.873844902
 H       -1.917726336    14.954088996    -6.786349707
 H       -1.779574754    17.406775421    -6.707746747
 H       -3.362064405    12.897371781    -3.910933445
 H       -2.079569345    12.958471136    -6.757469372
 H        0.156089907    11.729228519    -5.525003235
 H        2.344097253    10.878844342    -6.157458576
 H        0.533342176     7.383551464    -7.897803977
 H       -1.679508999     8.203362208    -7.301751715
 H        2.856702089     7.567415084    -7.982938590
 H        4.120904806    10.090432410    -6.709869223
 H        4.635699118     6.784076545    -8.545161111
 H        6.822259996     5.935336951    -9.172637033
 H        8.656767852     9.453723319    -7.385033988
 H        6.445612583    10.270713444    -6.787437115
 H        0.754809230    19.704699779    -2.526938208
 H        1.906406426    19.826499030    -3.871140730
 H        0.027889998    20.155233306    -5.186523201
 H       -0.120486947    18.400255954    -5.138819716
 H       -1.492028856    18.836530113    -2.854216310
 H       -1.675538145    20.489532347    -3.502931080
 H        2.263451666    -1.029861922    -0.036021566
 H        2.274434474     0.482955351     0.904812634
 H        2.262003908     0.539235027    -0.879555714
 H       10.561533518     4.840053635    -9.556169144
 H        8.926749623     5.072813742   -10.224478989
 H        9.134522314     4.577317523    -8.522407554
 H       11.277808332     7.580406670   -10.500603592
 C        9.383232115     7.998257000   -11.478871240
 C       10.536541008     9.519525758    -9.862472362
 H       10.767795322     8.319498768    -7.068583224
 C       10.223177168     6.487797502    -6.041572882
 C       12.197952374     6.764080986    -7.560397855
 H       -3.897946464    10.554846122    -3.794052428
 C       -3.309693008     8.497435618    -4.152487095
 C       -1.832832844    10.258952081    -3.173985349
 H       -3.958165217     9.027485906    -7.083894674
 C       -5.352169132    10.647287874    -6.700483677
 C       -3.659855324    10.600576086    -8.550479019
 H       -6.298756261    11.935951805    -0.101628414
 C       -6.178066116    14.023261583    -0.689868410
 C       -5.592542300    12.079534205    -2.149066292
 H       -4.423192350    14.143830316     1.905428293
 C       -5.238415133    12.300324692     2.713917765
 C       -2.825610405    12.956468196     2.778361310
 H       -1.785438749    -0.885781205    -1.448648342
 C       -0.294517436    -0.164916334    -2.849808621
 C       -0.207482899    -2.361883647    -1.645995726
 H       -0.099290364    -1.936526078     1.513161090
 C       -0.192623511    -0.229423431     2.854428454
 C       -2.127411953    -1.163657546     1.573955696
 H        9.220547003     6.982228232   -11.860803263
 H        9.844431413     8.564749333   -12.300555413
 H        8.396000872     8.451732235   -11.308939103
 H       11.240168849     9.646515675    -9.030066179
 H        9.612646172    10.058674675    -9.609664731
 H       10.976032855    10.051746024   -10.718750373
 H        9.208053670     6.798711128    -5.755396215
 H       10.866636861     6.708913289    -5.178078392
 H       10.215838165     5.395143951    -6.149843381
 H       12.668445970     7.290686110    -8.400748422
 H       12.283444572     5.686093447    -7.751105564
 H       12.823601711     6.970405115    -6.679729153
 H       -4.187595902     8.235578308    -4.754609796
 H       -3.529587201     8.169610592    -3.124272779
 H       -2.469354554     7.875216025    -4.491003007
 H       -1.578490415    11.320337722    -3.057584143
 H       -0.910834670     9.723256748    -3.440936917
 H       -2.109847675     9.894435929    -2.171226870
 H       -5.667713417    10.291563496    -5.711003890
 H       -6.101791732    10.276324314    -7.413686193
 H       -5.440170916    11.743101203    -6.705616803
 H       -2.688394153    10.251508053    -8.927473631
 H       -3.692732931    11.691455704    -8.677204155
 H       -4.418366546    10.189194681    -9.231497213
 H       -6.316101600    14.431885548     0.319080398
 H       -7.171799475    14.032901093    -1.160263789
 H       -5.563537724    14.737691357    -1.256872675
 H       -5.195532395    11.059657846    -2.249656506
 H       -5.022086737    12.731618649    -2.826710562
 H       -6.617077942    12.050091616    -2.546727956
 H       -6.228790215    12.409461376     2.254062695
 H       -5.332647038    12.690200883     3.738047822
 H       -5.032653045    11.225211354     2.815301075
 H       -1.983975689    13.503669183     2.332390569
 H       -2.499551829    11.917650178     2.933216332
 H       -2.974457673    13.383101144     3.780398365
 H       -0.637335115     0.879528129    -2.873693711
 H       -0.769795627    -0.663207486    -3.706644907
 H        0.784631669    -0.163300449    -3.052827069
 H       -0.499229172    -2.968065384    -0.778676700
 H        0.877585093    -2.466874705    -1.777815959
 H       -0.670357310    -2.837701407    -2.522787946
 H        0.892304802    -0.095928275     2.953976615
 H       -0.508635254    -0.830093597     3.719337903
 H       -0.661565606     0.757475787     2.977558720
 H       -2.498151522    -1.724459828     0.706758246
 H       -2.701769720    -0.229251809     1.643473523
 H       -2.399512314    -1.755562062     2.460128406

