187   

Si        0.000000000     0.000000000     0.000000000
 C        1.865751937     0.000000000     0.000000000
 C       -0.646767603     1.722170845     0.000000000
 C        0.030535705     2.696097328     0.741850947
 C       -0.428477836     4.010253978     0.766404348
 C       -1.563312069     4.387596937     0.044346874
 C       -2.241588831     3.411859316    -0.695694386
 C       -1.793954487     2.092076926    -0.711566876
 C       -2.061168621     5.758858875     0.056230906
 C       -1.482266858     6.754437767     0.748409375
 C       -1.945729791     8.135025795     0.787836289
 C       -3.071734287     8.576021433     0.089547536
 C       -3.474741232     9.909906905     0.160189897
 C       -2.782615170    10.818096345     0.965623796
 C       -1.661694291    10.373890016     1.681550356
 C       -1.247965205     9.049326446     1.589138819
Si       -3.264274596    12.586676081     1.100567448
 C       -3.310048290    13.103070925     2.854054130
 C       -3.604687567    12.271833167     3.863389756
 C       -3.645506074    12.669343242     5.271270183
 C       -3.966750840    11.710321577     6.241336977
 C       -4.018091156    12.038775301     7.587877073
 C       -3.687420300    13.340277184     8.017591183
 C       -3.358239356    14.303747655     7.042397943
 C       -3.362025734    13.971077828     5.695328876
 N       -3.729324604    13.705179013     9.374551487
 C       -3.836089732    12.644289297    10.385681313
 C       -2.847015560    14.811911499     9.783993134
 C       -2.576151711    11.771684435    10.512321431
 C       -2.748376230    10.760844911    11.658780237
 N       -1.732580192     9.694556309    11.656673002
 C       -1.753661625     8.790311311    10.576178508
 C       -2.979619542     8.439289066     9.972189463
 C       -3.011030068     7.550799296     8.908900113
 C       -1.839894021     6.941888796     8.437473344
 C       -0.630154599     7.267879504     9.056975727
 C       -0.578933220     8.169609228    10.111993116
 C       -0.411765187    10.170592130    12.100765158
 C       -1.922311254     6.009617541     7.311119827
 C       -0.862331437     5.378933682     6.789823642
Si       -0.868770904     4.204132423     5.391464692
 C        0.433203622     4.751436514     4.211615350
 C        0.473843194     6.106443028     3.857775284
 C        1.437991199     6.575505718     2.968954693
 C        2.381673575     5.705279216     2.413803646
 C        2.341288682     4.352134260     2.771986257
 C        1.379903453     3.879917028     3.664371588
 C        3.405149564     6.162030381     1.480041011
 C        3.538459008     7.433797909     1.066646128
 C        4.555700725     7.905972064     0.134189665
 C        5.512007587     7.059637925    -0.431879167
 C        6.466734682     7.555676556    -1.319759135
 C        6.478769589     8.910010589    -1.667369990
 C        5.517676147     9.760437631    -1.103511594
 C        4.569583607     9.263568879    -0.214013400
Si        7.731215602     9.581621343    -2.837336439
 C        8.649641369     8.216906784    -3.717047794
 C        6.831079837    10.688037619    -4.098039000
 C        8.987248988    10.647010477    -1.883109170
 C       -0.492714964     2.454161344     6.036685626
 C       -2.553132666     4.157091804     4.509243945
 C       -1.993709466    13.654298332     0.170089663
 C       -4.979076615    12.883033329     0.329862480
 C       -0.669647280    -0.958851172    -1.497678637
 C       -0.623351775    -0.838134671     1.594784554
 H        0.931974255     2.470562923     1.320747979
 H        0.118609335     4.749833149     1.355542801
 H       -3.129099013     3.682794359    -1.263274507
 H       -2.366957143     1.371981260    -1.300419342
 H       -2.955857643     5.934654162    -0.544783063
 H       -0.578930345     6.562123724     1.342221648
 H       -3.637211520     7.882327096    -0.528910734
 H       -4.348733551    10.203143950    -0.426906171
 H       -1.089584114    11.040427791     2.335991391
 H       -0.374917176     8.720033929     2.150224958
 H       -3.095612468    14.166987555     3.030143386
 H       -3.826226329    11.205666877     3.709297221
 H       -4.188415078    10.685953421     5.936076959
 H       -4.297926657    11.271346380     8.303550694
 H       -3.117165309    15.321229317     7.332037463
 H       -3.123447777    14.741305348     4.960571225
 H       -2.826522297    14.908784773    10.881221840
 H       -3.252694240    15.760294807     9.385815043
 H       -1.810319445    14.692882341     9.428123846
 H       -0.528039352    10.864162209    12.950050289
 H        0.159713617    10.682481852    11.309274478
 H        0.177550262     9.311718367    12.470975187
 H       -3.910342696     8.870164757    10.329712663
 H       -3.967467584     7.315757005     8.440623297
 H        0.298556056     6.810941422     8.710133913
 H        0.383777938     8.394238842    10.559501331
 H       -2.942055879     5.877496546     6.927938013
 H        0.147787444     5.535720647     7.206160736
 H       -0.236573773     6.835230809     4.265897925
 H        1.460871029     7.634674789     2.717640316
 H        3.070038706     3.660627451     2.354265874
 H        1.395008617     2.814148761     3.908176091
 H        4.081698240     5.382887624     1.119775134
 H        2.854951943     8.210636357     1.424795988
 H        5.519470750     6.000051139    -0.183009164
 H        7.190266501     6.845465617    -1.729175454
 H        5.476775722    10.827140163    -1.341527598
 H        3.828757272     9.938686870     0.211499467
 H       -4.071817042    13.126138622    11.362633169
 H       -4.724865813    12.016143184    10.141782677
 H       -2.382151007    11.239530614     9.558104176
 H       -1.683598597    12.399164491    10.679677627
 H       -2.705197477    11.279906723    12.642909625
 H       -3.756299547    10.287067070    11.617978759
 H        2.263803423    -1.028664681    -0.048159880
 H        2.278690248     0.476918591     0.905764107
 H        2.257780190     0.550000605    -0.875345518
 H        9.369241883     8.627791905    -4.447499249
 H        7.951452114     7.563496925    -4.271267821
 H        9.216245331     7.583934687    -3.011953031
 H        6.349633360    11.513241696    -3.496589316
 C        7.772901090    11.341102098    -5.125163535
 C        5.713842524     9.938907057    -4.846443197
 H        9.752190498    10.972377734    -2.646146182
 C        8.374756322    11.911495487    -1.254588120
 C        9.717326210     9.854101843    -0.783388590
 H       -0.393836124     1.801749015     5.119947566
 C        0.828097097     2.377225605     6.823596468
 C       -1.621676567     1.875133907     6.907816863
 H       -3.310812485     3.946158322     5.319242284
 C       -2.923361883     5.495237117     3.845981159
 C       -2.660167230     3.040414150     3.456460203
 H       -2.346489099    14.720321686     0.280952306
 C       -0.578978970    13.558021852     0.769315219
 C       -1.920894262    13.327154675    -1.331800962
 H       -4.919321784    12.485521355    -0.724318590
 C       -6.094494426    12.122624601     1.069972788
 C       -5.363441831    14.371790978     0.253132505
 H       -1.794951305    -0.898748241    -1.427763606
 C       -0.244154260    -0.334420520    -2.839169138
 C       -0.280660523    -2.448614378    -1.496260007
 H       -0.190424388    -1.878681535     1.587552554
 C       -0.137257643    -0.124378502     2.870306100
 C       -2.157145765    -0.955619081     1.652216950
 H        8.559082773    11.954340016    -4.666211075
 H        7.202595929    12.014028989    -5.782000853
 H        8.260235334    10.610521814    -5.784305726
 H        4.966702435     9.490984818    -4.175189118
 H        6.093184937     9.140616026    -5.497910526
 H        5.163684517    10.633745609    -5.496846723
 H        7.902899487    12.577889919    -1.987646691
 H        9.160040103    12.504187727    -0.762999933
 H        7.632091747    11.684343179    -0.476842826
 H       10.255081916     8.975651385    -1.162620935
 H        9.043227872     9.512212420     0.015186718
 H       10.471532492    10.489908599    -0.297905736
 H        1.696218618     2.755427289     6.267429469
 H        1.055595666     1.332005677     7.076391077
 H        0.785814994     2.921036235     7.777714375
 H       -2.584251274     1.806676711     6.384263289
 H       -1.785851374     2.446927756     7.832006580
 H       -1.369260776     0.852219759     7.221174319
 H       -2.878250701     6.357265128     4.523944036
 H       -3.953816340     5.454986420     3.465502078
 H       -2.292340906     5.724732607     2.973130327
 H       -2.510781571     2.033267429     3.863574333
 H       -1.956601456     3.169217452     2.618101993
 H       -3.662262945     3.043792993     3.004156982
 H       -0.539586269    13.806423978     1.838506056
 H        0.092423095    14.266080767     0.263194489
 H       -0.128922969    12.563266562     0.639595348
 H       -2.877183609    13.459483392    -1.853988650
 H       -1.572228390    12.303333842    -1.530279588
 H       -1.204074392    13.996300764    -1.829052024
 H       -5.921837953    11.039785220     1.134288985
 H       -7.051729267    12.251774811     0.546007423
 H       -6.250914729    12.490348024     2.094961755
 H       -4.663762375    14.972105756    -0.342124385
 H       -5.453066161    14.841880338     1.242291005
 H       -6.346098063    14.481169114    -0.228067024
 H       -0.520276852     0.725295315    -2.935092374
 H       -0.736055455    -0.857192459    -3.671682875
 H        0.836119485    -0.410496042    -3.022279356
 H       -0.623654941    -2.986308891    -0.602916284
 H        0.801471883    -2.609624836    -1.588816391
 H       -0.741028116    -2.957260734    -2.355760767
 H        0.955811596    -0.078300892     2.953665156
 H       -0.491123284    -0.663121773     3.760757107
 H       -0.526238043     0.902045918     2.955271829
 H       -2.582048486    -1.528753701     0.818664804
 H       -2.659040164     0.022647524     1.675013347
 H       -2.461099482    -1.479664779     2.569635615

