187   

Si        0.000000000     0.000000000     0.000000000
 C        1.865283286     0.000000000     0.000000000
 C       -0.668957883     1.715252592     0.000000000
 C        0.095530150     2.778920125     0.491082982
 C       -0.412517171     4.077629728     0.490440261
 C       -1.696588969     4.342628537     0.006931584
 C       -2.463595008     3.275180302    -0.478247709
 C       -1.958979514     1.977501712    -0.479447969
 C       -2.268691953     5.684785776    -0.013003440
 C       -1.640129658     6.790502182     0.420975845
 C       -2.210808243     8.133312291     0.401728378
 C       -3.495318143     8.399153206    -0.081825219
 C       -4.001297883     9.698008087    -0.081598062
 C       -3.228455453    10.761236947     0.398436612
 C       -1.942067426    10.498776883     0.884406396
 C       -1.442415248     9.198726253     0.888605585
Si       -3.897022657    12.475432479     0.398417843
 C       -2.537793429    13.676377767     0.604619128
 C       -2.489043465    14.685985095     1.483810452
 C       -1.359517342    15.612118896     1.590350533
 C       -1.398375808    16.639070369     2.541714386
 C       -0.347303080    17.536429813     2.672921787
 C        0.760214019    17.469833287     1.806334671
 C        0.796466484    16.440791089     0.843627769
 C       -0.237544977    15.521108649     0.759307356
 N        1.850959360    18.357268993     1.899016102
 C        1.773242826    19.464979043     2.860240053
 C        2.480704290    18.740783913     0.622665149
 C        0.808731801    20.591764503     2.452549870
 C        0.592573502    21.596050752     3.597147990
 N       -0.269103880    21.121985965     4.692425586
 C       -1.552769218    20.659663680     4.367048975
 C       -2.249192309    21.232171744     3.280078173
 C       -3.517198119    20.785735496     2.947340599
 C       -4.156543613    19.787678660     3.696967897
 C       -3.475979435    19.240246991     4.787417671
 C       -2.198735654    19.666643241     5.128557674
 C        0.442370417    20.435024558     5.779556316
 C       -5.496805312    19.354441848     3.299410166
 C       -6.201481166    18.411909635     3.938694231
Si       -7.874656174    17.835718242     3.484330565
 C       -8.957809005    17.858502765     4.971405889
 C       -8.642746545    18.681770117     6.059537665
 C       -9.459606183    18.702342685     7.187226511
 C      -10.614396839    17.911810378     7.250884255
 C      -10.929283441    17.096662084     6.159856493
 C      -10.111677236    17.070045283     5.030918950
 C      -11.438426272    17.967602307     8.453902581
 C      -12.564543201    17.259155577     8.643195958
 C      -13.389282881    17.314114687     9.845618066
 C      -13.076914223    18.127959659    10.937589530
 C      -13.893962077    18.149535301    12.067857678
 C      -15.039876292    17.350838282    12.132815378
 C      -15.354958056    16.533092683    11.039054808
 C      -14.540758015    16.517941014     9.910066513
Si      -16.128987406    17.367274347    13.616842718
 C      -15.313599320    18.227307332    15.057450963
 C      -17.751730692    18.272432686    13.203659938
 C      -16.541562113    15.565826128    14.073146705
 C       -8.642947252    18.939575543     2.139914082
 C       -7.760767532    16.059652411     2.816933180
 C       -4.740487786    12.805867463    -1.276425027
 C       -5.173174646    12.649152686     1.794999632
 C       -0.649689479    -0.918484516    -1.535974619
 C       -0.629483958    -0.908143473     1.549472873
 H        1.106615930     2.634358386     0.881859408
 H        0.204719373     4.888189032     0.873851014
 H       -3.466593773     3.459171573    -0.858538772
 H       -2.604726933     1.185783713    -0.869078434
 H       -3.282725964     5.744148153    -0.418731431
 H       -0.625926486     6.730792930     0.827066107
 H       -4.113203074     7.588948656    -0.463944164
 H       -5.012450925     9.845004638    -0.470923824
 H       -1.296939831    11.292363280     1.275687076
 H       -0.441581114     9.012038732     1.273565312
 H       -1.709572291    13.503873387    -0.104124872
 H       -3.295073290    14.897571800     2.198246595
 H       -2.265489598    16.741925898     3.197058698
 H       -0.414444591    18.307122612     3.437066023
 H        1.646253286    16.346993403     0.174475771
 H       -0.172577173    14.722395894     0.018675254
 H        3.249377924    19.512206780     0.790732264
 H        1.758617848    19.121836307    -0.117603541
 H        2.997292541    17.863176847     0.193640977
 H        1.441772005    20.877187589     5.923708061
 H        0.561567361    19.349962490     5.617886159
 H       -0.114500041    20.589913346     6.723528982
 H       -1.794012181    22.025990945     2.695742147
 H       -4.027756157    21.227470258     2.090719218
 H       -3.949285165    18.461356832     5.388014117
 H       -1.707763839    19.212577099     5.982883428
 H       -5.875612684    19.881465069     2.413898740
 H       -5.788982978    17.894350143     4.820865259
 H       -7.755999726    19.324314776     6.062675288
 H       -9.196349941    19.343992338     8.026148692
 H      -11.820902663    16.473068854     6.183667720
 H      -10.409172489    16.412314384     4.209788845
 H      -11.072312793    18.648872026     9.227687017
 H      -12.929995503    16.578313650     7.868853416
 H      -12.188246098    18.756095388    10.914059934
 H      -13.598313851    18.807236974    12.889981539
 H      -16.237216536    15.886771877    11.033701327
 H      -14.802688563    15.877353123     9.070167741
 H        1.489535858    19.039883036     3.850323366
 H        2.802549487    19.870930871     2.993430462
 H        1.198015925    21.119789707     1.563048757
 H       -0.162969710    20.161653634     2.130991917
 H        1.571630336    21.910889393     4.022345254
 H        0.131844245    22.529420047     3.191291137
 H        2.263628093    -1.029403912    -0.042305976
 H        2.276981783     0.478796301     0.905476445
 H        2.258759294     0.545276868    -0.877358028
 H      -15.958691745    18.200376525    15.953791179
 H      -15.099558989    19.287066791    14.833690360
 H      -14.358377635    17.738228754    15.321624306
 H      -18.341483094    18.293537847    14.165510151
 C      -17.519064933    19.726696794    12.754633658
 C      -18.604023668    17.558545969    12.139316060
 H      -17.073807619    15.134405283    13.175920066
 C      -15.281576888    14.718153014    14.325284858
 C      -17.482400020    15.439074671    15.284470832
 H       -7.892103316    18.973435499     1.298054008
 C       -9.963871853    18.384716825     1.577635765
 C       -8.881270971    20.379923579     2.628894180
 H       -8.825242568    15.735437744     2.626916612
 C       -6.992515522    15.959977026     1.488371175
 C       -7.142194017    15.085581086     3.834601633
 H       -5.642729478    12.129731214    -1.309472018
 C       -5.224175685    14.257371533    -1.436134341
 C       -3.835483148    12.448354799    -2.469363726
 H       -5.429549272    13.749164377     1.842751838
 C       -6.474034921    11.866430487     1.545816078
 C       -4.599817617    12.237416791     3.163389667
 H       -1.774731289    -0.921212154    -1.443341871
 C       -0.286454581    -0.202509795    -2.849506958
 C       -0.182691522    -2.382839665    -1.618266350
 H       -0.164948486    -1.935606717     1.514355496
 C       -0.184188297    -0.227295190     2.856623467
 C       -2.159401539    -1.075915652     1.576053702
 H      -16.985904720    20.333283569    13.497963656
 H      -18.483072932    20.227218791    12.584361703
 H      -16.964479809    19.797547812    11.807780963
 H      -18.893928874    16.539495546    12.424923943
 H      -18.108734665    17.507402470    11.159434878
 H      -19.542082134    18.109751842    11.978255546
 H      -14.583903094    14.714891897    13.475477234
 H      -15.560963053    13.668816067    14.496645953
 H      -14.719696468    15.037332077    15.213069731
 H      -18.439396580    15.959077720    15.148116140
 H      -17.032338062    15.805380333    16.216698819
 H      -17.729698651    14.381586971    15.458098131
 H       -9.861182200    17.391946869     1.121415032
 H      -10.342937926    19.047711535     0.786298566
 H      -10.760013343    18.327039912     2.333319830
 H       -7.976276631    20.869875129     3.013360930
 H       -9.646320495    20.440663334     3.416536128
 H       -9.242945126    21.004823972     1.800309828
 H       -7.398202779    16.603423645     0.697181727
 H       -7.051128674    14.930172925     1.103574194
 H       -5.923839605    16.199479047     1.593563524
 H       -7.663544734    15.075804590     4.801643696
 H       -6.080096835    15.288905831     4.030950689
 H       -7.194649962    14.055932193     3.449845213
 H       -5.947291704    14.562615300    -0.668844736
 H       -5.730812739    14.381570077    -2.403548790
 H       -4.400383172    14.985942011    -1.424484210
 H       -3.483796936    11.406998194    -2.453066018
 H       -2.951131010    13.095623021    -2.545471630
 H       -4.388318284    12.569656878    -3.411572572
 H       -7.004856262    12.180844202     0.638445972
 H       -7.174361018    12.022391169     2.379647799
 H       -6.315321771    10.780590942     1.484413528
 H       -3.685621650    12.782028892     3.438059445
 H       -4.372000147    11.163564969     3.224379562
 H       -5.331896506    12.442528104     3.957311443
 H       -0.633156592     0.840147096    -2.886547656
 H       -0.758058261    -0.713593728    -3.700823229
 H        0.792994777    -0.198473869    -3.051267977
 H       -0.472926125    -2.981494202    -0.745219415
 H        0.903747787    -2.479890275    -1.744377529
 H       -0.637696752    -2.872984174    -2.491293565
 H        0.905647119    -0.143873530     2.955680902
 H       -0.527013372    -0.812894741     3.721763519
 H       -0.608836590     0.779495555     2.979770451
 H       -2.550125532    -1.644310374     0.722609219
 H       -2.693851526    -0.115926524     1.614275670
 H       -2.461113875    -1.630065973     2.476780441

