187   

Si        0.000000000     0.000000000     0.000000000
 C        1.865035240     0.000000000     0.000000000
 C       -0.675428871     1.712843346     0.000000000
 C        0.119971202     2.799275590     0.378381212
 C       -0.399290860     4.093677620     0.375648672
 C       -1.723523935     4.331044319    -0.001603332
 C       -2.520791315     3.241172733    -0.375699466
 C       -2.005871594     1.947847572    -0.372189702
 C       -2.309017442     5.666995366    -0.019617222
 C       -1.656770773     6.792865980     0.316404584
 C       -2.246716549     8.126873419     0.296790948
 C       -1.456032785     9.221466320     0.671470030
 C       -1.979798868    10.511479846     0.666826380
 C       -3.307074913    10.735856678     0.281511441
 C       -4.095309068     9.646723631    -0.103573606
 C       -3.565696477     8.357167287    -0.103222884
Si       -4.018045450    12.431377101     0.268390219
 C       -5.822701361    12.277325056     0.507016283
 C       -6.781228646    12.845517206    -0.235300328
 C       -8.213112424    12.670194626     0.025017645
 C       -9.143836672    13.306487952    -0.808852371
 C      -10.506396590    13.163377235    -0.592855793
 C      -10.969031516    12.355929174     0.460454452
 C      -10.047253092    11.682653771     1.269359499
 C       -8.685266198    11.817028941     1.025886229
 N      -12.386943484    12.256734745     0.621005364
 C      -12.981031610    13.463934172     1.236366572
 C      -12.844163425    11.006624838     1.254913889
 C      -12.559371647    13.740069329     2.692985177
 C      -11.454335592    14.810756009     2.783139455
 N      -10.697151052    14.823264290     4.055974294
 C       -9.742916673    13.750314207     4.110383173
 C       -8.469485768    14.038703358     3.593700875
 C       -7.484262970    13.063636860     3.604409344
 C       -7.737016098    11.790068492     4.138737456
 C       -9.002525379    11.520299444     4.665207022
 C       -9.999443269    12.492037244     4.663229238
 C      -11.560155913    14.915333060     5.246918492
 C       -6.661136738    10.794025708     4.126199970
 C       -6.787236394     9.550973564     4.606966139
Si       -5.488346341     8.263120776     4.621913093
 C       -5.331674640     7.523120004     6.295269839
 C       -5.791069148     8.210911521     7.424736249
 C       -5.669590191     7.644669285     8.691526174
 C       -5.078680974     6.385822177     8.860552143
 C       -4.615345053     5.705026782     7.730790669
 C       -4.738380740     6.266666403     6.461101838
 C       -4.974042278     5.834255711    10.207479849
 C       -4.434151520     4.640126877    10.505332059
 C       -4.329188056     4.087970859    11.851920372
 C       -4.791267677     4.765829691    12.983010743
 C       -4.670687195     4.200431362    14.252439030
 C       -4.090996720     2.938522446    14.416920476
 C       -3.628031574     2.255787654    13.283813014
 C       -3.744241958     2.825446216    12.019022963
Si       -3.924521561     2.178628397    16.085088185
 C       -4.950666883     3.081169547    17.354955243
 C       -4.471009047     0.358632106    15.969854294
 C       -2.099771620     2.228748918    16.625083400
 C       -6.024017490     6.924761353     3.376425836
 C       -3.807488499     8.953465319     4.067737837
 C       -3.291835814    13.485333059     1.674338200
 C       -3.603042589    13.268240221    -1.386226958
 C       -0.652721412    -0.909256341    -1.539993532
 C       -0.623014060    -0.915505914     1.548026011
 H        1.163668092     2.676283882     0.680791163
 H        0.241417531     4.922211548     0.672530347
 H       -3.555259587     3.403933178    -0.672419782
 H       -2.675538847     1.136746869    -0.671924302
 H       -3.356277325     5.702518071    -0.335227765
 H       -0.610107301     6.758093141     0.631152874
 H       -0.422670469     9.064204153     0.973618794
 H       -1.318725820    11.326946260     0.972329381
 H       -5.137995967     9.766768716    -0.418690698
 H       -4.193120617     7.525043261    -0.418994222
 H       -6.084116970    11.637372449     1.370495235
 H       -6.569696319    13.491814837    -1.095110838
 H       -8.796153580    13.932824380    -1.629231767
 H      -11.225925501    13.658201438    -1.242124863
 H      -10.382395322    11.055103020     2.091245913
 H       -7.982002421    11.256313388     1.647630881
 H      -13.935886173    10.925043819     1.114100094
 H      -12.626071146    10.924794056     2.330480291
 H      -12.381889339    10.147757866     0.737355380
 H      -12.149311470    15.846051610     5.180532065
 H      -10.919436883    14.992219084     6.143130667
 H      -12.253397113    14.073946075     5.388072915
 H       -8.273276888    15.027584418     3.180567027
 H       -6.501166202    13.297642071     3.192535540
 H       -9.220264764    10.540896485     5.091531629
 H      -10.972851587    12.266123483     5.088024040
 H       -5.724948435    11.168721061     3.690695114
 H       -7.742264211     9.202401533     5.035910567
 H       -6.255699950     9.199354509     7.352534952
 H       -6.036558716     8.190742630     9.558426127
 H       -4.151743178     4.725994086     7.835340457
 H       -4.356987022     5.688098701     5.614252671
 H       -5.377426617     6.475145726    10.996928191
 H       -4.030497382     3.999051614     9.715914460
 H       -5.250683897     5.747365002    12.881642729
 H       -5.048888894     4.779755235    15.099221101
 H       -3.167271964     1.266279496    13.351323273
 H       -3.377283652     2.280724504    11.151173153
 H      -12.730724597    14.331908943     0.585857035
 H      -14.087038877    13.348026568     1.177921848
 H      -13.437594713    14.057847720     3.281919343
 H      -12.204411717    12.803574793     3.165423115
 H      -10.721584634    14.672167612     1.953047601
 H      -11.890827528    15.825670410     2.654161806
 H        2.263163586    -1.029156037    -0.052842936
 H        2.275995241     0.468699673     0.911193590
 H        2.259906343     0.553701349    -0.871361843
 H       -4.882348973     2.591484136    18.342777925
 H       -6.016992047     3.095341176    17.065052171
 H       -4.620816400     4.127477993    17.479036664
 H       -3.772940701    -0.127017071    15.227356422
 C       -4.348272301    -0.405369049    17.300227273
 C       -5.906439541     0.207106240    15.434857769
 H       -2.080543478     1.805693594    17.671007515
 C       -1.172398958     1.369055979    15.747533510
 C       -1.538968967     3.661605605    16.679087851
 H       -5.144614887     6.224711911     3.275305612
 C       -7.230349737     6.103390688     3.864473483
 C       -6.340766430     7.502859778     1.986816677
 H       -4.001836301     9.529727476     3.114773596
 C       -3.206068653     9.919109081     5.105211869
 C       -2.770936012     7.862365095     3.749245109
 H       -2.198583593    13.614275497     1.425011945
 C       -3.928301641    14.884237916     1.759779769
 C       -3.384055828    12.810811823     3.052970433
 H       -4.149790846    14.255331122    -1.382496391
 C       -2.101448000    13.556773809    -1.561656428
 C       -4.093357678    12.452684416    -2.596485344
 H       -1.777370430    -0.915510242    -1.442793342
 C       -0.297446896    -0.181167243    -2.848965087
 C       -0.181215857    -2.371213761    -1.635496535
 H       -0.141981791    -1.935525952     1.515104205
 C       -0.191811758    -0.226687597     2.855800451
 C       -2.149951435    -1.108323918     1.572308409
 H       -3.331555711    -0.398699849    17.713808209
 H       -4.612169741    -1.462562950    17.151311140
 H       -5.027178957    -0.026328973    18.075562112
 H       -6.055777473     0.680526724    14.453796524
 H       -6.664417267     0.614391050    16.116986402
 H       -6.149239515    -0.856821942    15.302296975
 H       -1.448217417     0.307148614    15.732603538
 H       -0.143557186     1.412757680    16.133953551
 H       -1.122302657     1.720210642    14.707245914
 H       -2.097551583     4.324037424    17.352790116
 H       -1.504708588     4.143872022    15.691430818
 H       -0.504230699     3.647737616    17.050544561
 H       -7.065585019     5.622388824     4.838718812
 H       -7.443822340     5.291466143     3.154984589
 H       -8.151372210     6.696547854     3.940477568
 H       -5.508544829     8.079793591     1.558101799
 H       -7.228532030     8.151357417     1.985708787
 H       -6.551030540     6.689157088     1.279253540
 H       -3.852700660    10.777878042     5.330605167
 H       -2.257090202    10.330090075     4.732115835
 H       -2.968133492     9.426963717     6.059239462
 H       -3.076620034     7.197305610     2.929154842
 H       -2.515342691     7.239012741     4.615648213
 H       -1.831148757     8.327094403     3.414137803
 H       -3.805482021    15.475249437     0.843313029
 H       -3.453511652    15.465589108     2.563254830
 H       -5.002509934    14.855749731     1.993733124
 H       -2.964376320    11.794370049     3.072202498
 H       -4.413718199    12.753923211     3.433300573
 H       -2.816472834    13.390504690     3.795066008
 H       -1.694022947    14.229848168    -0.796727661
 H       -1.924445096    14.051135957    -2.528273852
 H       -1.487596073    12.645023879    -1.569752035
 H       -5.170674877    12.238291362    -2.575256949
 H       -3.569303098    11.491824573    -2.703200443
 H       -3.907765541    13.008123526    -3.526698479
 H       -0.653469048     0.858588209    -2.877877039
 H       -0.766558314    -0.690085846    -3.703058081
 H        0.781441496    -0.166568558    -3.052983309
 H       -0.461971230    -2.976824850    -0.764148225
 H        0.904527066    -2.463274393    -1.771268291
 H       -0.641551561    -2.857341129    -2.508074042
 H        0.896183388    -0.122993060     2.956447574
 H       -0.524877868    -0.818678420     3.720429683
 H       -0.634600640     0.772120927     2.978471945
 H       -2.531111818    -1.676938708     0.714640464
 H       -2.699937851    -0.157743969     1.618044976
 H       -2.442822248    -1.674148207     2.468833712

