187   

Si        0.000000000     0.000000000     0.000000000
 C        1.865199627     0.000000000     0.000000000
 C       -0.673887321     1.713161647     0.000000000
 C        0.106992155     2.790929345    -0.430139859
 C       -0.409023114     4.086645965    -0.427878662
 C       -1.716690855     4.334249955    -0.002064236
 C       -2.499733058     3.252722009     0.423034045
 C       -1.987486071     1.958197453     0.421885714
 C       -2.298590381     5.672195930     0.017533684
 C       -1.658544294     6.791062326    -0.362470212
 C       -2.241418117     8.128659432    -0.342481233
 C       -1.458743877     9.210768985    -0.767579803
 C       -1.971882049    10.504983158    -0.766122960
 C       -3.285297165    10.746362312    -0.343228734
 C       -4.068484703     9.668670716     0.082339263
 C       -3.548925087     8.374515764     0.085189659
Si       -3.964571974    12.454791959    -0.340644164
 C       -5.788808490    12.404547139    -0.234963400
 C       -6.541792297    13.098906826     0.627540614
 C       -8.003617362    13.030071207     0.679506867
 C       -8.682293807    13.807949930     1.631002755
 C      -10.062961568    13.779847679     1.722352787
 C      -10.817897241    12.987864006     0.830692648
 C      -10.142095337    12.204078105    -0.117917640
 C       -8.752067635    12.214189218    -0.170735415
 N      -12.223805084    12.993694085     0.965476765
 C      -12.859969357    14.331000623     0.988999797
 C      -12.968354607    12.005150874     0.169359891
 C      -12.220222023    15.394464701     0.081533340
 C      -12.267174334    15.020512309    -1.411017698
 N      -11.243306687    15.713000028    -2.216610665
 C      -11.273830882    17.120433217    -2.204623805
 C      -12.512915648    17.793885115    -2.142455280
 C      -12.559152039    19.178466078    -2.129916075
 C      -11.389535969    19.945147538    -2.230797807
 C      -10.166153849    19.276189494    -2.325246904
 C      -10.100081201    17.889143941    -2.320180751
 C       -9.916759946    15.079030691    -2.117181705
 C      -11.493738663    21.405274191    -2.212572670
 C      -10.443773284    22.231987583    -2.302297456
Si      -10.507336396    24.057679448    -2.285529184
 C       -9.538690690    24.719318184    -3.702606436
 C       -9.353972487    23.936952326    -4.849467242
 C       -8.622296472    24.429072799    -5.927256376
 C       -8.068212042    25.715443483    -5.890438104
 C       -8.260546133    26.495770331    -4.746682054
 C       -8.988873582    26.004868330    -3.663861433
 C       -7.309747140    26.185668850    -7.044950409
 C       -6.724697504    27.391917634    -7.137511068
 C       -5.966478960    27.860892939    -8.292686444
 C       -5.774391805    27.080762151    -9.435736315
 C       -5.042157337    27.568941202   -10.517953360
 C       -4.478419315    28.847943853   -10.476418646
 C       -4.668331476    29.632054288    -9.330248626
 C       -5.404891753    29.144375979    -8.254489728
Si       -3.509379157    29.507374683   -11.895673426
 C       -3.103063426    28.169283073   -13.130296879
 C       -4.513570381    30.863766007   -12.776227035
 C       -1.909614195    30.282885651   -11.214993791
 C      -12.295039048    24.693370193    -2.408988151
 C       -9.753572695    24.672105386    -0.649592252
 C       -3.220592735    13.424107811     1.116421443
 C       -3.488409889    13.326531563    -1.964047355
 C       -0.625252543    -0.912453219    -1.548678567
 C       -0.651216670    -0.914338609     1.537879015
 H        1.136885604     2.659881615    -0.773581239
 H        0.220795270     4.908382085    -0.763862330
 H       -3.521230190     3.423302146     0.757879563
 H       -2.646274189     1.154644760     0.762768245
 H       -3.331630573     5.716312783     0.375179728
 H       -0.625642416     6.747368460    -0.719994428
 H       -0.437553446     9.040459568    -1.102961081
 H       -1.315229040    11.309822902    -1.107949892
 H       -5.099260255     9.800286049     0.427174746
 H       -4.176412581     7.552218676     0.424213434
 H       -6.249269582    11.734408366    -0.980199228
 H       -6.114998578    13.779713096     1.375859052
 H       -8.114480133    14.437703198     2.317148267
 H      -10.571884484    14.361200281     2.487747090
 H      -10.690737458    11.579530046    -0.815576034
 H       -8.247689402    11.582364365    -0.903785136
 H      -14.013290684    11.973618170     0.526064619
 H      -12.545426255    10.999352866     0.345641656
 H      -12.975515577    12.201750840    -0.914090714
 H      -10.019907490    13.979720447    -2.131986238
 H       -9.365186027    15.347256000    -1.200377271
 H       -9.313974730    15.357762952    -2.999809951
 H      -13.439682995    17.229678502    -2.099907187
 H      -13.526002656    19.676999700    -2.056896770
 H       -9.239783426    19.847700608    -2.406035951
 H       -9.127838474    17.411301365    -2.392643736
 H      -12.527107252    21.763822809    -2.120466431
 H       -9.417236969    21.837031210    -2.387894075
 H       -9.767380952    22.926290196    -4.934592001
 H       -8.483589419    23.805481077    -6.808446243
 H       -7.840584627    27.498305109    -4.692954847
 H       -9.105482406    26.660234971    -2.796570484
 H       -7.240676759    25.469263547    -7.868993944
 H       -6.793691631    28.108649771    -6.314062451
 H       -6.198758045    26.079957759    -9.491583927
 H       -4.927972703    26.912851084   -11.385268949
 H       -4.250163545    30.638718399    -9.240963995
 H       -5.543010732    29.768791466    -7.373862820
 H      -13.939609856    14.227081163     0.745925405
 H      -12.814881448    14.682156637     2.048958372
 H      -12.724803947    16.367341034     0.241902896
 H      -11.167915685    15.570185218     0.386204076
 H      -12.121778561    13.925036586    -1.546675579
 H      -13.268066511    15.246977775    -1.841258557
 H        2.263293572    -1.028816121     0.058018545
 H        2.259742686     0.558389370     0.868553014
 H        2.276303492     0.464271427    -0.913322796
 H       -2.485357735    28.564163336   -13.956635228
 H       -4.014513476    27.733571574   -13.575796628
 H       -2.534873789    27.349545241   -12.654293295
 H       -3.891016717    31.174781515   -13.664433532
 C       -5.867263339    30.348838544   -13.298945762
 C       -4.762702756    32.110949583   -11.909336548
 H       -2.238192697    31.106257448   -10.516130190
 C       -1.070246751    29.281813389   -10.400558232
 C       -1.022152740    30.913864473   -12.302617283
 H      -12.863564417    24.185659240    -1.576909976
 C      -12.414665254    26.214777199    -2.208084313
 C      -12.961234781    24.317867348    -3.745301878
 H       -9.832437713    25.797371334    -0.672684285
 C      -10.514020750    24.167380139     0.589400526
 C       -8.265859167    24.302754954    -0.510413468
 H       -3.750732098    14.420353299     1.128254117
 C       -3.469370418    12.730569646     2.468403289
 C       -1.712076619    13.691296221     0.969325700
 H       -2.361118803    13.373565790    -1.973271076
 C       -3.940761562    12.541874592    -3.208338418
 C       -4.027410874    14.765012605    -2.053855905
 H       -0.149641820    -1.934984564    -1.516102399
 C       -2.153307384    -1.096936992    -1.572413480
 C       -0.190555919    -0.225153018    -2.856066691
 H       -1.775938728    -0.921453863     1.441752410
 C       -0.178896445    -2.376478120     1.627983380
 C       -0.294960719    -0.190850588     2.849194412
 H       -5.774284913    29.505448291   -13.995158759
 H       -6.386275577    31.146000221   -13.850251471
 H       -6.547371776    30.040327281   -12.491882496
 H       -3.840096537    32.588378690   -11.555918556
 H       -5.392664294    31.902004428   -11.033241452
 H       -5.297198489    32.873466278   -12.494600113
 H       -1.624815427    28.828620333    -9.566338515
 H       -0.205060281    29.791373417    -9.952932329
 H       -0.665412986    28.464028323   -11.011281611
 H       -1.533168141    31.692901420   -12.882957819
 H       -0.623514681    30.176024750   -13.011391092
 H       -0.149488043    31.397970510   -11.840336589
 H      -12.054339475    26.554980492    -1.228991521
 H      -13.469506262    26.519769878    -2.268698395
 H      -11.885992977    26.791433604    -2.980343532
 H      -12.955898208    23.238807554    -3.951614084
 H      -12.497119545    24.818556518    -4.607449878
 H      -14.015907817    24.626695653    -3.741382042
 H      -11.568880988    24.470116049     0.605857741
 H      -10.061560891    24.579209371     1.502723338
 H      -10.480224239    23.073552070     0.695811041
 H       -7.647181596    24.664267279    -1.343916713
 H       -8.100752100    23.220329834    -0.419630771
 H       -7.848729898    24.755644143     0.400196934
 H       -4.530781017    12.538276267     2.676357932
 H       -3.102825200    13.362119692     3.289905972
 H       -2.939685704    11.770938034     2.558325284
 H       -1.456056450    14.265290407     0.069766202
 H       -1.112753772    12.769964106     0.964072777
 H       -1.351353069    14.283989887     1.822869400
 H       -3.560591369    11.510767232    -3.235007193
 H       -3.564293655    13.029952340    -4.118730851
 H       -5.033364032    12.496285152    -3.312449298
 H       -3.671632887    15.414124824    -1.243284154
 H       -5.125922672    14.811430574    -2.060366713
 H       -3.693793734    15.233695027    -2.990845305
 H       -2.536011728    -1.670666315    -0.718864803
 H       -2.450428918    -1.653586162    -2.473150754
 H       -2.698402212    -0.143021690    -1.609158251
 H        0.897921032    -0.126651304    -2.956377472
 H       -0.628833373     0.775844267    -2.978219435
 H       -0.526164244    -0.814956925    -3.721139654
 H       -0.458753848    -2.978636982     0.753994663
 H       -0.639505670    -2.866368014     2.498250703
 H        0.906839613    -2.468377322     1.763891047
 H       -0.649809849     0.849233422     2.881655714
 H        0.784070742    -0.177963349     3.052733233
 H       -0.764230053    -0.702292947     3.701660997

