187   

Si        0.000000000     0.000000000     0.000000000
 C        1.864359948     0.000000000     0.000000000
 C       -0.674915265     1.711328109     0.000000000
 C       -0.057604237     2.711510792    -0.759765551
 C       -0.560976256     4.011981477    -0.766906076
 C       -1.705413414     4.331688244    -0.035255424
 C       -2.330921609     3.325807555     0.714876824
 C       -1.823945464     2.030292494     0.733069390
 C       -2.283755100     5.666776280     0.001654775
 C       -1.829784568     6.760239697    -0.634664679
 C       -2.492840359     8.057948014    -0.526282494
 C       -3.643189854     8.213840368     0.256076728
 C       -4.274684262     9.447584274     0.359922082
 C       -3.750060050    10.571562455    -0.292200799
 C       -2.599999522    10.424062685    -1.073177978
 C       -1.986510865     9.176004362    -1.199354881
Si       -4.667640652    12.146784726    -0.084053158
 C       -3.688401086    13.671045399    -0.326182140
 C       -4.075896850    14.676696495    -1.121168645
 C       -3.319461208    15.911145021    -1.339766912
 C       -3.863044725    16.872197378    -2.205992443
 C       -3.196921280    18.061696253    -2.455209046
 C       -1.974999020    18.323994729    -1.814391174
 C       -1.433133529    17.377928953    -0.937356778
 C       -2.105990381    16.182130117    -0.703514002
 N       -1.359377726    19.579600452    -2.134103349
 C       -0.617773775    19.514423173    -3.413869703
 C       -0.565283077    20.162262397    -1.037469228
 C        0.655344948    18.649403140    -3.365764592
 C        0.814468357    17.717704578    -4.581081594
 N        0.113155096    16.429471853    -4.505669563
 C        0.474732679    15.501297970    -3.522620001
 C        1.569983968    15.717281484    -2.661017977
 C        1.900288030    14.776409872    -1.698005670
 C        1.224492973    13.552767245    -1.612310319
 C        0.156490669    13.324591733    -2.486625689
 C       -0.227537471    14.280212950    -3.415316998
 C       -1.304132078    16.465418378    -4.894958040
 C        1.628206316    12.609498837    -0.570247802
 C        1.079717208    11.405139164    -0.362769500
Si        1.615489489    10.251420199     0.956103892
 C        1.893542921     8.598424271     0.185962430
 C        1.778032141     8.448800987    -1.200803653
 C        1.984014654     7.208729934    -1.803015352
 C        2.341571256     6.094485327    -1.039503632
 C        2.462996215     6.246060740     0.348391908
 C        2.232961627     7.478752669     0.955708480
 C        2.566102158     4.779096272    -1.632622153
 C        2.477649402     4.515074151    -2.947791990
 C        2.697536063     3.210100209    -3.561892743
 C        3.031484356     2.071331306    -2.825093740
 C        3.232256077     0.843762901    -3.457165481
 C        3.100651397     0.725365940    -4.844658367
 C        2.757395544     1.864875054    -5.584608217
 C        2.552298804     3.087197054    -4.950417746
Si        3.364635816    -0.894030372    -5.686140567
 C        4.562886224    -1.946410635    -4.718358365
 C        1.713993783    -1.820921961    -5.880785606
 C        4.043403401    -0.572634071    -7.437158398
 C        3.259521701    10.856822851     1.710661706
 C        0.338127568    10.176814824     2.362055375
 C       -6.151814897    12.109426763    -1.275779736
 C       -5.312892077    12.233107203     1.710164181
 C       -0.620200449    -0.822480535    -1.604035776
 C       -0.642150428    -0.977531836     1.498571085
 H        0.831586214     2.514168546    -1.368377958
 H       -0.054423588     4.779515229    -1.352852346
 H       -3.224539121     3.556790985     1.291017190
 H       -2.354435620     1.289644664     1.336440289
 H       -3.184619822     5.734078934     0.624973822
 H       -0.931546865     6.732497315    -1.255160442
 H       -4.064563965     7.362772393     0.789556555
 H       -5.178555647     9.491444675     0.975561348
 H       -2.155460542    11.271966842    -1.601752557
 H       -1.096502899     9.072397400    -1.818478444
 H       -2.743407699    13.712169610     0.238846411
 H       -5.014248110    14.652955528    -1.693129798
 H       -4.819471710    16.683340972    -2.692847417
 H       -3.620614633    18.809365065    -3.123421628
 H       -0.486005427    17.564800557    -0.438081748
 H       -1.666442397    15.447558733    -0.026513986
 H       -0.324668497    21.206874091    -1.300409509
 H        0.374382468    19.635664700    -0.813558856
 H       -1.180285457    20.186972420    -0.120772237
 H       -1.521262834    17.342447026    -5.523545696
 H       -1.984348654    16.489547414    -4.023442056
 H       -1.535048907    15.567713228    -5.497999224
 H        2.167151987    16.619479217    -2.734545152
 H        2.722786838    14.988982155    -1.013967951
 H       -0.393987388    12.383882485    -2.435612505
 H       -1.073202286    14.077286838    -4.065165663
 H        2.456692691    12.992738221     0.042698966
 H        0.237234533    11.044365597    -0.972543990
 H        1.527720104     9.287919079    -1.858111592
 H        1.874636394     7.120026702    -2.882204215
 H        2.728554771     5.388547789     0.964126310
 H        2.319778234     7.531357471     2.044330575
 H        2.823141847     3.991371077    -0.918256656
 H        2.223650688     5.310502904    -3.655461599
 H        3.160264758     2.142364957    -1.745261546
 H        3.500301675    -0.011153281    -2.829090084
 H        2.633786940     1.835147262    -6.670689478
 H        2.280983773     3.957566603    -5.544763169
 H       -1.321768578    19.139695626    -4.189412092
 H       -0.367337243    20.558642901    -3.703361786
 H        1.545719807    19.298674476    -3.284029432
 H        0.650827724    18.038938765    -2.438257557
 H        0.488572548    18.237984894    -5.510344671
 H        1.898848896    17.491312395    -4.733828463
 H        2.260371278    -1.015791573     0.175834362
 H        2.259726105     0.654235894     0.797774744
 H        2.269854248     0.353866060    -0.963506954
 H        4.757477490    -2.904149161    -5.232831743
 H        4.180634941    -2.181550785    -3.709566155
 H        5.532707613    -1.429771859    -4.599049120
 H        1.899068588    -2.609271809    -6.667659537
 C        1.267714956    -2.542382877    -4.597199436
 C        0.573883414    -0.914611907    -6.377701562
 H        3.235734943    -0.003756393    -7.982928423
 C        5.314626557     0.295722188    -7.429615856
 C        4.328308994    -1.859708527    -8.232130115
 H        3.072995849    11.921283181     2.034719076
 C        3.716078714    10.062986617     2.947614103
 C        4.407221410    10.857978073     0.683676254
 H        0.895766267     9.767903941     3.254519798
 C       -0.211313959    11.567106787     2.733548371
 C       -0.845400360     9.239097157     2.086188637
 H       -6.673594254    13.102763243    -1.158748739
 C       -5.713997348    11.964107100    -2.745107792
 C       -7.169430491    11.001635769    -0.951908348
 H       -6.008522721    11.355120374     1.838944410
 C       -4.179108212    12.099944005     2.742628606
 C       -6.111900011    13.515047946     2.000761230
 H       -0.001762861    -1.755125279    -1.737760824
 C       -2.101980365    -1.235982175    -1.547988701
 C       -0.412982347     0.081453984    -2.832673304
 H       -1.768711835    -0.941822082     1.436002755
 C       -0.219858924    -2.458470742     1.489234782
 C       -0.222589420    -0.350058964     2.840872921
 H        1.966714195    -3.326962160    -4.280363321
 H        0.300985181    -3.039896857    -4.759975905
 H        1.123182808    -1.861369205    -3.745940099
 H        0.780288038    -0.450044064    -7.350455329
 H        0.328537503    -0.107728656    -5.671174224
 H       -0.346207312    -1.502068137    -6.508302327
 H        5.183600366     1.258327973    -6.915301626
 H        5.613747967     0.535968897    -8.459897681
 H        6.174262577    -0.208749516    -6.968264328
 H        3.446821694    -2.501828552    -8.354526738
 H        5.126914550    -2.469227462    -7.788699732
 H        4.664312795    -1.605748275    -9.248255307
 H        2.990142100    10.077333301     3.770171923
 H        4.641563586    10.499263853     3.351174439
 H        3.948969396     9.013615119     2.720417387
 H        4.186079971    11.432667334    -0.226198071
 H        4.692557709     9.844725847     0.365794809
 H        5.307847846    11.308777370     1.122859769
 H        0.566850416    12.281976623     3.027900908
 H       -0.894215270    11.482442743     3.590639961
 H       -0.794623332    12.023219307     1.919448750
 H       -0.551003403     8.234568835     1.750916658
 H       -1.536156014     9.644435004     1.330468077
 H       -1.438986771     9.095683605     2.999032829
 H       -5.007011084    12.738161989    -3.073914923
 H       -6.586950904    12.040048721    -3.408131295
 H       -5.253494757    10.987649818    -2.955258435
 H       -7.605841428    11.090176141     0.051029780
 H       -6.747875736     9.990750414    -1.048074721
 H       -8.012104732    11.047833288    -1.657038645
 H       -3.576421713    11.188539786     2.615564632
 H       -4.597997770    12.051052728     3.757576939
 H       -3.489992685    12.955715812     2.734394661
 H       -6.990340627    13.636280859     1.354151622
 H       -5.505409804    14.427972944     1.911421766
 H       -6.490496677    13.497333610     3.032616819
 H       -2.323873896    -1.958131776    -0.752728605
 H       -2.392784709    -1.718903160    -2.492058179
 H       -2.779337297    -0.379565548    -1.421848474
 H        0.634083753     0.380074900    -2.990927366
 H       -1.011332602     1.003585682    -2.793236325
 H       -0.725109918    -0.444660561    -3.746620913
 H       -0.528897934    -2.993776195     0.581917036
 H       -0.687418855    -2.987136365     2.332360440
 H        0.863362182    -2.595162285     1.604606820
 H       -0.524035530     0.701777413     2.944484868
 H        0.860376392    -0.400516662     3.015818210
 H       -0.695588393    -0.889483939     3.673632323

