187   

Si        0.000000000     0.000000000     0.000000000
 C        1.865226658     0.000000000     0.000000000
 C       -0.665850473     1.716824303     0.000000000
 C        0.056232649     2.749291682    -0.609143483
 C       -0.437863216     4.052964590    -0.615394176
 C       -1.666164934     4.354585306    -0.020553455
 C       -2.391441827     3.318586167     0.582089789
 C       -1.900755447     2.015214854     0.589403005
 C       -2.220734704     5.704349581    -0.004005652
 C       -1.625439823     6.780294829    -0.546086757
 C       -2.174836181     8.131831918    -0.532676292
 C       -3.401762467     8.442187536     0.059614266
 C       -3.888274085     9.749383125     0.048572395
 C       -3.164127474    10.771377820    -0.572379885
 C       -1.935017969    10.462671639    -1.171173822
 C       -1.446185971     9.159705484    -1.146432357
Si       -3.771660524    12.506679692    -0.608276831
 C       -3.384431073    13.310170194    -2.206169186
 C       -3.294413745    12.644567937    -3.365251373
 C       -2.985802933    13.269414492    -4.653059852
 C       -2.921147516    12.455791181    -5.795635101
 C       -2.633193822    12.994574417    -7.038120845
 C       -2.437461404    14.383512618    -7.179008855
 C       -2.499602941    15.199177175    -6.040790278
 C       -2.751480822    14.638350488    -4.792193604
 N       -2.144918480    14.872717215    -8.481317287
 C       -3.230934112    14.645670062    -9.462384853
 C       -1.610158322    16.244412375    -8.542285729
 C       -4.581839408    15.280749479    -9.085842228
 C       -5.501373018    14.278683673    -8.358968156
 N       -6.550295386    14.921007535    -7.550478077
 C       -7.480483792    15.728997830    -8.223769223
 C       -7.863812073    15.408813564    -9.544887105
 C       -8.780124585    16.197144970   -10.220287738
 C       -9.387071454    17.299145614    -9.600146379
 C       -9.030966315    17.595913974    -8.282048091
 C       -8.101254638    16.825916058    -7.595135409
 C       -6.062055112    15.397131685    -6.246161096
 C      -10.347971776    18.096165701   -10.363040130
 C      -10.991304113    19.168673685    -9.881649362
Si      -12.190011181    20.156054273   -10.846029151
 C      -11.796228881    20.135658005   -12.643289468
 C      -10.456841241    20.121693546   -13.055837795
 C      -10.135588471    20.106141228   -14.410213758
 C      -11.141405692    20.116593631   -15.385820373
 C      -12.475841085    20.138550718   -14.971559737
 C      -12.801119161    20.149845879   -13.615375005
 C      -10.754409336    20.099506350   -16.792607617
 C      -11.615789721    20.102859283   -17.823954738
 C      -11.227840869    20.085760520   -19.230534718
 C       -9.893502822    20.063807791   -19.644434201
 C       -9.567371221    20.047987046   -21.000512846
 C      -10.571303063    20.059039932   -21.973780532
 C      -11.910578266    20.080969526   -21.561290127
 C      -12.232949703    20.091517820   -20.207152082
Si      -10.156985579    20.038423747   -23.767302893
 C       -8.355078315    20.421816076   -24.060204707
 C      -10.541518872    18.317125367   -24.483457180
 C      -11.254119989    21.318969528   -24.650426136
 C      -13.938066818    19.468286752   -10.543996584
 C      -12.127216730    21.954195218   -10.227870110
 C       -5.655006775    12.565533639    -0.347492796
 C       -2.927852775    13.485802353     0.786331758
 C       -0.632461255    -0.900621555    -1.552775552
 C       -0.646552198    -0.927745258     1.531660949
 H        1.022999356     2.575605364    -1.090154629
 H        0.145758826     4.838568827    -1.091962174
 H       -3.351027795     3.531019065     1.049704640
 H       -2.512893002     1.248596623     1.072250105
 H       -3.189475512     5.795708763     0.495529940
 H       -0.656209940     6.686583103    -1.045193142
 H       -3.988688049     7.662113616     0.540748793
 H       -4.849692776     9.932001889     0.536175464
 H       -1.326553439    11.223249886    -1.672275970
 H       -0.487979055     8.938949673    -1.613260070
 H       -3.243133360    14.399853010    -2.156197136
 H       -3.439003913    11.556631525    -3.437660309
 H       -3.087486659    11.381493303    -5.702860681
 H       -2.544689193    12.348821587    -7.909422068
 H       -2.351314887    16.271965367    -6.118693540
 H       -2.777214962    15.287830044    -3.916386525
 H       -1.226926634    16.427408615    -9.561852889
 H       -0.749937575    16.333720672    -7.855768052
 H       -2.341710618    17.030903112    -8.300438189
 H       -5.315841104    14.689565932    -5.838038522
 H       -6.904490828    15.421341778    -5.531426542
 H       -5.593099811    16.392809102    -6.288303635
 H       -7.438513932    14.542381018   -10.042761746
 H       -9.044183328    15.944915916   -11.248319602
 H       -9.489173237    18.446262267    -7.775088751
 H       -7.854650798    17.090976053    -6.572350899
 H      -10.490215498    17.731609554   -11.390854311
 H      -10.840661586    19.509461548    -8.846734351
 H       -9.629589827    20.115435019   -12.337741262
 H       -9.090062725    20.088435145   -14.711711759
 H      -13.276294714    20.147330045   -15.708768053
 H      -13.862466976    20.167050209   -13.353339608
 H       -9.674937851    20.083403449   -16.969646027
 H      -12.695269572    20.119186640   -17.647546530
 H       -9.092977959    20.058690661   -18.906935087
 H       -8.505921266    20.031181661   -21.262689234
 H      -12.737426801    20.090797151   -22.277051956
 H      -13.278809140    20.106869806   -19.906360745
 H       -2.885253217    15.039336740   -10.444832308
 H       -3.338905215    13.546557166    -9.601828669
 H       -4.420885638    16.171894858    -8.449968537
 H       -5.091242202    15.663925718    -9.989894317
 H       -5.985605717    13.593773383    -9.090968874
 H       -4.907440686    13.617776746    -7.684513339
 H        2.263358936    -1.027873785     0.071893954
 H        2.258678510     0.570362032     0.861398007
 H        2.277605053     0.453067518    -0.918188623
 H       -8.125115105    20.451642562   -25.140270224
 H       -7.695493986    19.665020598   -23.600727365
 H       -8.085759865    21.406430562   -23.636507146
 H      -10.211903912    18.354892487   -25.561912073
 C       -9.751921062    17.196743475   -23.781901869
 C      -12.037749365    17.957417685   -24.455025041
 H      -12.319127090    20.992357810   -24.467291265
 C      -11.090156136    22.735527757   -24.070462066
 C      -11.033001692    21.371462115   -26.172599235
 H      -14.640275697    20.127391473   -11.131411312
 C      -14.093581277    18.024779218   -11.055316776
 C      -14.363384684    19.521417295    -9.065647287
 H      -12.381854763    21.915724633    -9.129573840
 C      -10.724679886    22.572235317   -10.371480680
 C      -13.150143979    22.868094286   -10.924787395
 H       -5.848429398    12.073530633     0.649216828
 C       -6.214064110    13.998428991    -0.285502276
 C       -6.419362016    11.780721009    -1.428629868
 H       -3.336349679    14.535498039     0.722715506
 C       -3.244482559    12.932785059     2.186620490
 C       -1.400395237    13.556531759     0.609716648
 H       -0.166073207    -1.927444689    -1.525322615
 C       -2.162279282    -1.070148614    -1.573287430
 C       -0.193796419    -0.211841068    -2.857942235
 H       -1.772517259    -0.911595818     1.452706541
 C       -0.202666438    -2.400601950     1.588901856
 C       -0.254647171    -0.236248030     2.850135451
 H       -8.663983188    17.333600090   -23.829731724
 H       -9.961111519    16.230389183   -24.262708689
 H      -10.026398770    17.079181733   -22.723643470
 H      -12.667116404    18.664926303   -25.009454404
 H      -12.437868228    17.876938644   -23.434429299
 H      -12.196326601    16.974966312   -24.923278811
 H      -11.287859556    22.787661779   -22.990149092
 H      -11.804069449    23.422761365   -24.546451164
 H      -10.091663577    23.157954127   -24.244495582
 H      -11.199192259    20.407137084   -26.669877048
 H      -10.029088057    21.721073323   -26.447709144
 H      -11.740227138    22.078550736   -26.630173081
 H      -13.863010999    17.911395316   -12.123575769
 H      -15.131639600    17.687892387   -10.926567993
 H      -13.466114351    17.307788438   -10.505480335
 H      -14.355104472    20.535065233    -8.645443593
 H      -13.742413277    18.884703610    -8.419745193
 H      -15.394077717    19.153833740    -8.958123634
 H       -9.941983050    22.003163751    -9.851457860
 H      -10.711418581    23.582284498    -9.938219372
 H      -10.413133587    22.684086470   -11.420029250
 H      -14.189450589    22.543845251   -10.786538150
 H      -12.971091497    22.965512692   -12.005224950
 H      -13.088747102    23.885437731   -10.512003280
 H       -5.772889184    14.604786344     0.515737730
 H       -7.295407271    13.970446970    -0.086627772
 H       -6.090488553    14.546732712    -1.229840856
 H       -6.118578887    10.726345174    -1.500010117
 H       -6.314672654    12.221432950    -2.431166608
 H       -7.495366612    11.778450581    -1.203998515
 H       -4.315601907    12.938351485     2.425889606
 H       -2.755521880    13.549957155     2.954469429
 H       -2.873772742    11.908487651     2.336862729
 H       -1.090594753    13.988113715    -0.351656969
 H       -0.914033916    12.574878273     0.705854389
 H       -0.960037884    14.193891912     1.389815877
 H       -2.547850926    -1.646923918    -0.722996976
 H       -2.467995891    -1.616301886    -2.477517713
 H       -2.698603675    -0.110849606    -1.599399081
 H        0.895375454    -0.124477013    -2.960494863
 H       -0.622638586     0.793894149    -2.974792288
 H       -0.537564447    -0.794409247    -3.724790972
 H       -0.514116285    -2.982906396     0.712083175
 H       -0.654462432    -2.894810754     2.461351542
 H        0.883546374    -2.517295593     1.699388180
 H       -0.580350324     0.812163404     2.906016486
 H        0.827143330    -0.255595548     3.038734691
 H       -0.725511724    -0.750293902     3.700163086

