187   

Si        0.000000000     0.000000000     0.000000000
 C        1.865110326     0.000000000     0.000000000
 C       -0.684184830     1.708873168     0.000000000
 C        0.117492079     2.809906307    -0.317012509
 C       -0.414381480     4.099467649    -0.313040115
 C       -1.758240021     4.316913957     0.001411786
 C       -2.561379794     3.212017598     0.314857031
 C       -2.033186677     1.924213911     0.313476550
 C       -2.359428729     5.646230886     0.018746247
 C       -1.706491719     6.787542154    -0.258868200
 C       -2.313357797     8.114588207    -0.239885980
 C       -1.517151345     9.225281002    -0.550279849
 C       -2.053531302    10.510245643    -0.544719826
 C       -3.404437852    10.712894338    -0.235771077
 C       -4.201781860     9.606382156     0.074490200
 C       -3.658940180     8.322040196     0.075833188
Si       -4.121353087    12.405994884    -0.225971362
 C       -5.941719148    12.305719612    -0.360217985
 C       -6.824481016    12.927615365     0.431645548
 C       -8.277270292    12.815215716     0.283132911
 C       -9.104426606    13.515561819     1.175446254
 C      -10.483297117    13.442478575     1.077429383
 C      -11.082384399    12.680124294     0.052521999
 C      -10.258823256    11.974023582    -0.837905602
 C       -8.875348689    12.030604498    -0.704669245
 N      -12.495132151    12.639522794    -0.001815876
 C      -13.164605031    13.960135079    -0.050196280
 C      -13.088758614    11.650739119    -0.916348764
 C      -12.432403739    15.055428194    -0.842732913
 C      -12.225559963    14.686521799    -2.322471219
 N      -11.219100296    15.527102467    -2.994054291
 C      -11.491576396    16.901181923    -3.103233522
 C      -12.824667472    17.356555134    -3.195798491
 C      -13.098216606    18.710492954    -3.303607224
 C      -12.066706296    19.657131330    -3.375856760
 C      -10.746399356    19.201831867    -3.317740093
 C      -10.454250741    17.850537823    -3.191905926
 C       -9.836656542    15.147149141    -2.653966006
 C      -12.412203794    21.074988117    -3.488906103
 C      -11.511229354    22.063234693    -3.564781114
Si      -11.885329623    23.845887335    -3.706762357
 C      -10.927542101    24.786588926    -2.448745234
 C      -10.409478299    24.136476486    -1.322015367
 C       -9.684332235    24.848273006    -0.369404562
 C       -9.468844523    26.224993878    -0.513365455
 C       -9.992962621    26.871634058    -1.636567741
 C      -10.715441343    26.161870961    -2.594390742
 C       -8.702761574    26.926716705     0.511442423
 C       -8.421795590    28.240689293     0.491486177
 C       -7.655771614    28.942514338     1.516156640
 C       -7.131179685    28.298016563     2.639352813
 C       -6.404407166    29.008388620     3.594845410
 C       -6.181051028    30.380438657     3.443500053
 C       -6.705658148    31.029103210     2.317257881
 C       -7.435173839    30.318617475     1.368297062
Si       -5.224018501    31.332220334     4.695412490
 C       -4.316195391    30.202090109     5.869477425
 C       -3.991223923    32.454811831     3.776853302
 C       -6.411737598    32.430444442     5.698837244
 C      -11.386750558    24.432116299    -5.447449955
 C      -13.740359857    24.182665446    -3.457584717
 C       -3.594387887    13.300412079     1.366795927
 C       -3.468245803    13.383063673    -1.722661894
 C       -0.613852619    -0.921931976    -1.548154752
 C       -0.653616030    -0.907748549     1.540622676
 H        1.175572803     2.702286282    -0.571102696
 H        0.231614798     4.940047963    -0.559686187
 H       -3.610919242     3.359376970     0.562760895
 H       -2.708076898     1.101746053     0.566962019
 H       -3.421168825     5.663398409     0.282961988
 H       -0.645255046     6.772421735    -0.523015816
 H       -0.466762804     9.085076465    -0.797915857
 H       -1.384472895    11.338888241    -0.792304623
 H       -5.262442552     9.707057757     0.327120313
 H       -4.298280101     7.476834489     0.324470444
 H       -6.278389592    11.668061642    -1.195273989
 H       -6.523621151    13.574507473     1.265922373
 H       -8.656537039    14.120124317     1.965005807
 H      -11.111961913    13.965188438     1.794770320
 H      -10.686909986    11.374737131    -1.635367880
 H       -8.255091208    11.460033176    -1.398022542
 H      -14.169352784    11.571388905    -0.701400137
 H      -12.653313520    10.655716194    -0.712511786
 H      -12.961804677    11.880995756    -1.985414739
 H       -9.762408575    14.054585212    -2.507032974
 H       -9.459992593    15.631015963    -1.737621532
 H       -9.173860179    15.405928407    -3.499337365
 H      -13.648267490    16.649502989    -3.176669241
 H      -14.136590799    19.040270211    -3.348322723
 H       -9.923236233    19.916410011    -3.373777062
 H       -9.414600729    17.540727947    -3.153689360
 H      -13.495045864    21.255319311    -3.502843803
 H      -10.429834073    21.846396912    -3.557972622
 H      -10.551507599    23.063614427    -1.155276485
 H       -9.284009044    24.326010456     0.497447638
 H       -9.839636115    27.940522030    -1.772047298
 H      -11.099240589    26.720658117    -3.452335655
 H       -8.353974564    26.295414680     1.334021491
 H       -8.770544678    28.871775825    -0.331138767
 H       -7.287317668    27.229880828     2.778759922
 H       -6.019816382    28.449434605     4.452397613
 H       -6.562251375    32.099722998     2.145861881
 H       -7.835872837    30.840057679     0.501114273
 H      -14.195966305    13.833252182    -0.444762610
 H      -13.278783622    14.293445104     1.010229156
 H      -12.996879177    16.005566565    -0.767269959
 H      -11.450251038    15.269779344    -0.373949641
 H      -11.896207836    13.626191753    -2.418941240
 H      -13.183720266    14.756066810    -2.883572873
 H        2.262634115    -1.029595039     0.047985919
 H        2.261071579     0.549601006     0.873382481
 H        2.275166100     0.472560971    -0.909663813
 H       -3.710417280    30.780183654     6.590046913
 H       -3.629445052    29.531309777     5.321916792
 H       -5.011671684    29.571464790     6.450469232
 H       -4.616799302    33.137772223     3.131389832
 C       -3.146640077    33.335994660     4.714373661
 C       -3.051078410    31.662851083     2.850214374
 H       -5.773323269    32.935078511     6.480468926
 C       -7.095242977    33.526429918     4.861868574
 C       -7.498060892    31.614436071     6.423301998
 H      -11.661138780    25.525316297    -5.498306419
 C       -9.873259201    24.310299536    -5.699055305
 C      -12.143162111    23.698188614    -6.568428349
 H      -14.277776437    23.506277943    -4.183724012
 C      -14.213859639    23.833834722    -2.034557444
 C      -14.146825771    25.633819179    -3.770628041
 H       -4.143512741    14.286346867     1.365058149
 C       -3.998960404    12.526356603     2.634698472
 C       -2.085517184    13.597322348     1.430067667
 H       -2.350677791    13.454586744    -1.584444711
 C       -3.736600666    12.665256410    -3.057302690
 C       -4.032236289    14.812738594    -1.799059165
 H       -0.120514219    -1.936149406    -1.515064748
 C       -2.138104697    -1.134209580    -1.574073407
 C       -0.190557796    -0.227282793    -2.855427911
 H       -1.778277387    -0.912591148     1.443208727
 C       -0.183687154    -2.370111801     1.637190225
 C       -0.297809378    -0.178880748     2.849064676
 H       -3.750214858    33.985787526     5.361180426
 H       -2.503269172    34.003640951     4.122867686
 H       -2.474199108    32.754075581     5.358538573
 H       -3.586085815    31.048646147     2.111726876
 H       -2.366681614    31.000735762     3.396966869
 H       -2.419032960    32.353726219     2.274224140
 H       -6.387268796    34.206478103     4.371575252
 H       -7.724886964    34.154594678     5.508902674
 H       -7.762733846    33.119002379     4.089501357
 H       -7.092623558    30.859261946     7.108882231
 H       -8.180577669    31.101992099     5.730026944
 H       -8.124108438    32.279817142     7.035013891
 H       -9.263969715    24.847827251    -4.958785992
 H       -9.618115197    24.741705744    -6.677414059
 H       -9.525758223    23.268237391    -5.722000471
 H      -13.232917254    23.812836945    -6.505965163
 H      -11.923454869    22.621107831    -6.598638767
 H      -11.847307855    24.099585491    -7.548151802
 H      -13.998866840    22.797234760    -1.741064594
 H      -15.303126372    23.957437635    -1.957933665
 H      -13.774925060    24.488782439    -1.267912405
 H      -13.930135120    25.934099258    -4.803645374
 H      -13.673260186    26.365010731    -3.100381751
 H      -15.231584577    25.756650572    -3.637750990
 H       -5.073695096    12.306566731     2.692838116
 H       -3.754927273    13.114864081     3.530376429
 H       -3.463717501    11.571244526     2.739155458
 H       -1.730375558    14.230365013     0.607026710
 H       -1.470231749    12.686567773     1.444992714
 H       -1.848478265    14.139930134     2.357036443
 H       -3.327556157    11.645522114    -3.093489400
 H       -3.261499324    13.214582634    -3.882682311
 H       -4.805436225    12.603510558    -3.303347634
 H       -3.801245895    15.419407023    -0.913882664
 H       -5.121808670    14.836402726    -1.944207441
 H       -3.595788343    15.343841138    -2.657169871
 H       -2.513979706    -1.702364211    -0.713831143
 H       -2.421636135    -1.709067996    -2.467794314
 H       -2.699563302    -0.190743003    -1.627342930
 H        0.895986182    -0.108092866    -2.954710980
 H       -0.647046846     0.765444692    -2.978439207
 H       -0.514072761    -0.823509155    -3.720677252
 H       -0.462561948    -2.975194645     0.764896858
 H       -0.646697748    -2.856072485     2.508392668
 H        0.901660821    -2.462963699     1.775587109
 H       -0.652983544     0.861277828     2.876740515
 H        0.780989866    -0.165270953     3.053440095
 H       -0.768030376    -0.686468487     3.703339333

