187   

Si        0.000000000     0.000000000     0.000000000
 C        1.865305771     0.000000000     0.000000000
 C       -0.676657309     1.711816199     0.000000000
 C        0.121442853     2.801963579     0.361232631
 C       -0.400529074     4.095321735     0.358080258
 C       -1.730945671     4.328200222     0.000073209
 C       -2.530607398     3.234269885    -0.357138507
 C       -2.012382773     1.942228946    -0.355965519
 C       -2.319759127     5.663091933    -0.017657843
 C       -1.665029616     6.792671823     0.300652923
 C       -2.253550250     8.127661688     0.283017734
 C       -3.584039653     8.359697446    -0.075106629
 C       -4.106682295     9.653027464    -0.078456113
 C       -3.310885273    10.741423196     0.288752464
 C       -1.975611473    10.511208995     0.650228802
 C       -1.454193673     9.221075314     0.642748627
Si       -3.956462986    12.466532082     0.299722048
 C       -3.239759349    13.399991651     1.702093471
 C       -2.882062988    12.810156213     2.850625264
 C       -2.305882702    13.502811409     4.002589793
 C       -1.980396649    12.749546264     5.139718283
 C       -1.432068534    13.347731328     6.261914544
 C       -1.084732632    14.715015066     6.243251654
 C       -1.390277869    15.466940322     5.093019405
 C       -2.018606517    14.869868344     4.006901870
 N       -0.527795768    15.306268449     7.395114529
 C        0.408116338    14.492077636     8.195544333
 C       -0.083332222    16.705165849     7.264449238
 C        1.764061866    14.214019396     7.518707797
 C        1.851591004    12.784630040     6.944389104
 N        2.789162814    12.641760538     5.808151411
 C        2.364143105    13.399261506     4.671643324
 C        1.239395532    12.920904973     3.976398087
 C        0.770355600    13.602880373     2.865579974
 C        1.429265010    14.749359119     2.395883322
 C        2.556815484    15.206295706     3.080021776
 C        3.026119766    14.542238128     4.209329314
 C        4.194107209    12.841993152     6.205071162
 C        0.893121172    15.434080846     1.217616293
 C        1.438587136    16.534631908     0.682677065
Si        0.778034650    17.396144066    -0.786271831
 C       -1.046194388    17.188598531    -0.890960292
 C       -1.797758177    17.188459062     0.292783762
 C       -3.179759482    17.033787392     0.250278198
 C       -3.846550019    16.909364604    -0.975862716
 C       -3.096438947    16.921702614    -2.154689115
 C       -1.708781595    17.055351047    -2.114157308
 C       -5.295918161    16.749271847    -0.969148454
 C       -6.055560573    16.599263450    -2.067371069
 C       -7.505544774    16.439509357    -2.053875015
 C       -8.249924393    16.428037634    -0.871188141
 C       -9.635232232    16.272802735    -0.901740249
 C      -10.306552923    16.120866412    -2.119025272
 C       -9.561962528    16.126406178    -3.306108565
 C       -8.178775792    16.280531974    -3.272101495
Si      -12.135140853    15.915206234    -2.171144588
 C      -12.929718153    16.442082809    -0.568271210
 C      -12.824178911    16.942483044    -3.617110411
 C      -12.534980921    14.080382948    -2.484097331
 C        1.175991073    19.248600953    -0.632922876
 C        1.620732107    16.704504712    -2.343590067
 C       -3.490681833    13.346233534    -1.314258001
 C       -5.850875541    12.426119824     0.471212718
 C       -0.652719350    -0.908689141    -1.540473549
 C       -0.620177714    -0.918434370     1.547472517
 H        1.169260715     2.682718051     0.650329598
 H        0.242945090     4.927107101     0.639299121
 H       -3.569635951     3.393600915    -0.639082025
 H       -2.684275185     1.128951116    -0.643930702
 H       -3.370974449     5.695462929    -0.318243533
 H       -0.613376473     6.760492388     0.600868214
 H       -4.226026210     7.528236639    -0.359028661
 H       -5.152108156     9.771536019    -0.375644210
 H       -1.304921166    11.327054526     0.943592900
 H       -0.414201957     9.062240187     0.922964937
 H       -3.134851129    14.483621702     1.546577078
 H       -2.991662742    11.727752714     3.017519129
 H       -2.190823167    11.679034579     5.156991094
 H       -1.267083772    12.753444806     7.156176025
 H       -1.138174752    16.520679185     5.033513000
 H       -2.262737203    15.479998605     3.135551052
 H        0.334023391    17.058171585     8.221936420
 H       -0.960198357    17.340905824     7.042834593
 H        0.675014123    16.857706465     6.478853911
 H        4.457021501    12.073410597     6.952723387
 H        4.415946241    13.831376825     6.631330763
 H        4.845091761    12.679639160     5.328114062
 H        0.735927599    12.018856650     4.322703592
 H       -0.121960012    13.237815479     2.349682892
 H        3.083247801    16.096047070     2.734829760
 H        3.900241751    14.924042652     4.727125066
 H       -0.014765423    14.959915347     0.815953290
 H        2.353358964    16.981084161     1.100779614
 H       -1.327806126    17.294324544     1.277055268
 H       -3.747752466    17.017859980     1.179126003
 H       -3.591443442    16.823732447    -3.118723910
 H       -1.174244527    17.050727876    -3.067520186
 H       -5.751746836    16.763348123     0.026221095
 H       -5.602103288    16.588125170    -3.062552249
 H       -7.752127838    16.547442717     0.090019467
 H      -10.164080899    16.277709890     0.055495440
 H      -10.033160698    16.011336102    -4.286188854
 H       -7.617665905    16.280760051    -4.204676252
 H        0.570324440    15.030058935     9.158854070
 H       -0.097661645    13.542173216     8.478401305
 H        1.933034670    14.949749304     6.706441310
 H        2.585508157    14.379701663     8.237154480
 H        2.159153428    12.067173723     7.734962125
 H        0.850343262    12.448440848     6.586958217
 H        2.263501237    -1.029506587    -0.041291294
 H        2.275728663     0.479044330     0.906074975
 H        2.260059267     0.544233595    -0.877326467
 H      -14.029971821    16.358875953    -0.623397500
 H      -12.688287265    17.494955050    -0.334052198
 H      -12.591990313    15.822076056     0.280583046
 H      -12.337764887    16.531196076    -4.549178516
 C      -14.348530012    16.815927970    -3.787561900
 C      -12.453101613    18.432778923    -3.511250585
 H      -13.659317785    13.999529512    -2.439943821
 C      -12.074465507    13.579380065    -3.864667010
 C      -11.945591899    13.156391255    -1.402449173
 H        2.300166571    19.323041804    -0.573190297
 C        0.706295132    20.069119941    -1.846563027
 C        0.588453616    19.868117655     0.648194554
 H        1.175305571    17.264685722    -3.215732623
 C        3.142637892    16.933808931    -2.361018666
 C        1.341632750    15.204117158    -2.542885103
 H       -3.876530723    14.404489926    -1.206550803
 C       -1.968655417    13.415891889    -1.528494256
 C       -4.148327427    12.730432965    -2.560466124
 H       -6.225617520    11.822876916    -0.406140212
 C       -6.305916695    11.726837246     1.765343511
 C       -6.507527545    13.813572427     0.400842171
 H       -1.777224635    -0.917075261    -1.441838035
 C       -0.300434560    -0.178340121    -2.849040112
 C       -0.178560800    -2.369655424    -1.638525163
 H       -0.140316016    -1.938872125     1.510883198
 C       -0.185158135    -0.232734151     2.855634636
 C       -2.147200385    -1.110312126     1.575316080
 H      -14.685124753    15.781943938    -3.937606712
 H      -14.674359525    17.376641314    -4.675850289
 H      -14.910420667    17.230988543    -2.940313482
 H      -11.370046486    18.606805423    -3.438304910
 H      -12.926457856    18.933176099    -2.655990489
 H      -12.790431107    18.969961517    -4.409200790
 H      -12.528262510    14.126757963    -4.700492821
 H      -12.362172464    12.526064163    -3.996805789
 H      -10.983038008    13.615505821    -3.990054535
 H      -12.291176847    13.395775308    -0.388518496
 H      -10.846032834    13.160513984    -1.390215036
 H      -12.247029863    12.115989241    -1.591231374
 H        1.155057884    19.742839896    -2.793587809
 H        0.989952756    21.124125810    -1.720289664
 H       -0.385705351    20.059746145    -1.973447917
 H        0.920893686    19.366798958     1.567547454
 H       -0.510991639    19.876940274     0.652370967
 H        0.903307193    20.917473679     0.737693842
 H        3.425908454    17.992273000    -2.301775094
 H        3.568175847    16.556118153    -3.302145135
 H        3.664554216    16.400493316    -1.554045238
 H        0.271125270    14.960865971    -2.596606052
 H        1.782354062    14.579359630    -1.751745616
 H        1.783561645    14.859865917    -3.488428970
 H       -1.436236535    13.908033824    -0.701972075
 H       -1.746829252    14.009258175    -2.427695735
 H       -1.511471695    12.429436532    -1.684955437
 H       -5.245683680    12.746611237    -2.524255274
 H       -3.833425364    11.694314358    -2.745232709
 H       -3.864233262    13.302374563    -3.455530607
 H       -5.929532725    10.699889955     1.865190792
 H       -7.402380280    11.656637098     1.790191449
 H       -6.010568229    12.275108996     2.671526687
 H       -6.304340581    14.338187205    -0.544349361
 H       -6.208043375    14.471730396     1.226812229
 H       -7.601548395    13.717152584     0.460689516
 H       -0.656330359     0.861690571    -2.874844152
 H       -0.771865436    -0.685384475    -3.702854186
 H        0.777949167    -0.163480325    -3.055466132
 H       -0.458016983    -2.977006137    -0.768021063
 H        0.907345618    -2.459324804    -1.774441004
 H       -0.638071165    -2.855144334    -2.511775481
 H        0.903160738    -0.129992722     2.953615404
 H       -0.516564738    -0.825884993     3.719982755
 H       -0.626810130     0.766438573     2.981061141
 H       -2.530678141    -1.677675375     0.717952697
 H       -2.696139936    -0.159089071     1.623394753
 H       -2.438153046    -1.676693934     2.471982475

