187   

Si        0.000000000     0.000000000     0.000000000
 C        1.864537677     0.000000000     0.000000000
 C       -0.671373869     1.712998562     0.000000000
 C        0.101003663     2.768585533     0.495502689
 C       -0.400596487     4.068454067     0.498784643
 C       -1.672931243     4.347040395    -0.006756801
 C       -2.444707375     3.288794241    -0.502913050
 C       -1.954027492     1.985537885    -0.492602339
 C       -2.226653944     5.696215906    -0.017733999
 C       -1.583123880     6.780767949     0.446576003
 C       -2.122145222     8.134953819     0.442841056
 C       -3.390309660     8.438270721    -0.056677966
 C       -3.865955287     9.749200685    -0.040232958
 C       -3.088449597    10.781195802     0.492761246
 C       -1.819314680    10.477317456     1.004424811
 C       -1.344709371     9.169825385     0.980611088
Si       -3.682260105    12.526777592     0.532509249
 C       -3.722278903    12.973046858     2.313114817
 C       -3.958554179    12.005272990     3.210082077
 C       -4.029646494    12.156570315     4.661043052
 C       -4.290528373    10.997672489     5.410301407
 C       -4.376033785    11.041917360     6.787813288
 C       -4.292778058    12.274463995     7.468177530
 C       -4.049628803    13.438293302     6.719487611
 C       -3.895298163    13.368575000     5.336342690
 N       -4.385597764    12.268989521     8.878730231
 C       -5.405065361    11.356862076     9.439263519
 C       -4.378363403    13.582970147     9.543205697
 C       -6.841481549    11.679451156     8.982468354
 C       -7.797620281    10.489048624     9.191059960
 N       -7.997736503     9.627111785     8.008991242
 C       -6.910588467     8.804214858     7.636184680
 C       -6.278721868     8.028359785     8.630563692
 C       -5.210075499     7.209299484     8.305482566
 C       -4.752007492     7.104823045     6.983271593
 C       -5.405646733     7.842442175     5.994204710
 C       -6.485185643     8.662945590     6.304150781
 C       -8.697772634    10.320514030     6.914391095
 C       -3.618347177     6.223310525     6.698957702
 C       -3.087205058     6.036038275     5.483009465
Si       -1.668734434     4.925246770     5.164756744
 C       -0.564012852     4.834169825     6.635182567
 C       -0.357836635     5.978798554     7.417056030
 C        0.473572253     5.930267952     8.532435130
 C        1.129993206     4.743764109     8.886351020
 C        0.928701826     3.606482911     8.099799133
 C        0.091915696     3.650020385     6.985130702
 C        1.991330701     4.742199074    10.064226820
 C        2.670688115     3.673174144    10.513354052
 C        3.532310661     3.670006054    11.690899439
 C        3.736035377     4.805099379    12.479797605
 C        4.568897363     4.756764733    13.597690580
 C        5.221443412     3.570598741    13.947770844
 C        5.018942623     2.430624011    13.158056346
 C        4.183116734     2.480654948    12.046086517
Si        6.323818286     3.489842359    15.419728673
 C        6.732633271     5.191593063    16.065423729
 C        5.464260300     2.501593011    16.801149082
 C        7.916966151     2.574591484    14.921838496
 C       -2.238635775     3.203544049     4.604418112
 C       -0.625423049     5.686381085     3.763812904
 C       -2.528002435    13.679537105    -0.437248192
 C       -5.434587275    12.678741107    -0.195438149
 C       -0.667851708    -0.948489751    -1.505581843
 C       -0.625407855    -0.843313305     1.590531876
 H        1.108790026     2.616101984     0.892394874
 H        0.220387899     4.874372435     0.889016761
 H       -3.439291010     3.483274911    -0.899227796
 H       -2.602782482     1.198389314    -0.885874029
 H       -3.231910657     5.778668984    -0.438946355
 H       -0.574522456     6.693769319     0.865256189
 H       -4.017345954     7.651916657    -0.471762935
 H       -4.858820339     9.927064615    -0.461770853
 H       -1.174224135    11.243142508     1.448069839
 H       -0.357015254     8.951980245     1.383355831
 H       -3.564312131    14.018481955     2.592253721
 H       -4.116923725    10.954487709     2.905132023
 H       -4.392064177    10.036231831     4.902268010
 H       -4.512901276    10.114103497     7.344209927
 H       -3.971849121    14.404867968     7.205472139
 H       -3.684560539    14.280239793     4.778191506
 H       -4.387179031    13.441126166    10.637214799
 H       -5.228734218    14.225926880     9.267744276
 H       -3.437297530    14.107883086     9.298071312
 H       -9.576842575    10.849994246     7.318586179
 H       -9.075966524     9.570703916     6.196123733
 H       -8.073496279    11.049144868     6.370921522
 H       -6.635866115     8.066850538     9.656117816
 H       -4.724425683     6.629498031     9.091404296
 H       -5.079851900     7.765241758     4.955145027
 H       -6.967232882     9.218323717     5.504990534
 H       -3.230058211     5.722659446     7.597698964
 H       -3.492329627     6.539452299     4.592069485
 H       -0.843187198     6.934264543     7.186324620
 H        0.615735426     6.826971445     9.132995316
 H        1.426170760     2.672411729     8.353000196
 H       -0.027809711     2.727889940     6.409816585
 H        2.056732776     5.702339953    10.584607563
 H        2.604921145     2.713483695     9.992671140
 H        3.242633505     5.741692304    12.226531904
 H        4.688917792     5.677011972    14.176043111
 H        5.502925161     1.476028614    13.383038181
 H        4.036901751     1.584602632    11.446065169
 H       -5.131193291    10.313481725     9.150789260
 H       -5.332601375    11.387991684    10.547920750
 H       -7.216920076    12.564156347     9.526018161
 H       -6.833916407    11.975207260     7.914150211
 H       -7.454042590     9.857138871    10.039834713
 H       -8.803400054    10.865782655     9.491717896
 H        2.262033495    -1.029660050    -0.047781351
 H        2.277687110     0.473289531     0.907819953
 H        2.259663050     0.548343694    -0.874716929
 H        7.432290970     5.136392591    16.918452473
 H        5.830083975     5.726267318    16.409660194
 H        7.211965951     5.807296460    15.282692370
 H        6.162525680     2.544863465    17.686385467
 C        4.120185084     3.123901955    17.222051116
 C        5.232706619     1.021232556    16.449198133
 H        7.591091875     1.546399619    14.588634973
 C        8.636586851     3.246137144    13.738125675
 C        8.913676334     2.400048129    16.081469355
 H       -1.293670823     2.610706927     4.426069594
 C       -3.066053926     2.473629338     5.677462566
 C       -3.032889857     3.219444005     3.286854324
 H       -1.238424739     5.570621291     2.822480755
 C       -0.351573771     7.184831745     3.978146032
 C        0.714060764     4.954443770     3.568311745
 H       -2.994646001    14.705490835    -0.363143073
 C       -1.107673054    13.769055155     0.148962801
 C       -2.427670030    13.304384611    -1.926874277
 H       -5.401924277    12.153402780    -1.193413664
 C       -6.500164773    11.990223759     0.678328411
 C       -5.873043255    14.133934959    -0.441873453
 H       -1.792306440    -0.944701995    -1.403376777
 C       -0.313383464    -0.264488791    -2.838501850
 C       -0.207800285    -2.416522752    -1.557662788
 H       -0.147896662    -1.864368946     1.609206069
 C       -0.198811131    -0.088259984     2.863335405
 C       -2.153475245    -1.027280049     1.619342533
 H        4.209657062     4.160330658    17.572014900
 H        3.686142953     2.554451986    18.056352892
 H        3.371541206     3.108056137    16.416838322
 H        6.156652753     0.479641113    16.210410135
 H        4.535564506     0.886804656    15.610109948
 H        4.783822006     0.497640244    17.305874459
 H        7.999293329     3.355912217    12.848888311
 H        9.497084213     2.637681427    13.425495006
 H        9.033736799     4.239684143    13.984869755
 H        8.491452484     1.862978343    16.940593837
 H        9.315772082     3.353919190    16.447827507
 H        9.779478495     1.810576270    15.746251293
 H       -2.545556821     2.372795985     6.639325990
 H       -3.299763315     1.452747378     5.344362825
 H       -4.031284520     2.961885034     5.874559391
 H       -2.460243144     3.619636864     2.436533763
 H       -3.971090019     3.785430973     3.353878570
 H       -3.309219264     2.194176722     3.001460625
 H       -1.268065326     7.789376786     4.041617062
 H        0.224998381     7.588164109     3.134144692
 H        0.243846000     7.388516941     4.879211835
 H        0.592436426     3.904747630     3.268235550
 H        1.349126866     4.972697167     4.466040265
 H        1.301283618     5.441054708     2.776754019
 H       -1.089292121    14.015830566     1.219151513
 H       -0.541543872    14.562543302    -0.359762986
 H       -0.530642602    12.844630757     0.007579806
 H       -3.395220870    13.310421930    -2.445297057
 H       -1.970050649    12.318135549    -2.090231362
 H       -1.791087327    14.028455977    -2.455669906
 H       -6.287341344    10.933713302     0.888791742
 H       -7.475285062    12.013927788     0.172560330
 H       -6.640757239    12.492387140     1.647197619
 H       -5.229671377    14.667408569    -1.153314311
 H       -5.921328148    14.729469860     0.479915165
 H       -6.884827373    14.153393732    -0.872285023
 H       -0.659047559     0.777341309    -2.898092343
 H       -0.791965338    -0.795181400    -3.673924972
 H        0.764551837    -0.267103809    -3.048691340
 H       -0.488275434    -2.992041632    -0.665968920
 H        0.876454536    -2.521433739    -1.696193373
 H       -0.676686085    -2.926372979    -2.411921038
 H        0.888441119     0.023444619     2.961501386
 H       -0.533040844    -0.636867846     3.755618084
 H       -0.647053993     0.914746262     2.933566873
 H       -2.534686481    -1.637899467     0.791211066
 H       -2.698711024    -0.072592687     1.612629406
 H       -2.452120232    -1.544192481     2.543002014

