187   

Si        0.000000000     0.000000000     0.000000000
 C        1.865110378     0.000000000     0.000000000
 C       -0.688139643     1.707121917     0.000000000
 C        0.116824667     2.814577728    -0.284289578
 C       -0.420423513     4.101999738    -0.280134601
 C       -1.772762002     4.310691713     0.001988284
 C       -2.578992905     3.199335449     0.283241138
 C       -2.045504011     1.913820584     0.282022373
 C       -2.380467330     5.636987022     0.018333081
 C       -1.727025445     6.784762943    -0.229863384
 C       -2.342699472     8.107821807    -0.211455998
 C       -1.546720600     9.227307995    -0.488824419
 C       -2.092083169    10.508621965    -0.482317150
 C       -3.451925468    10.698481928    -0.206947068
 C       -4.249281423     9.582972992     0.069857920
 C       -3.697558643     8.302553894     0.071268125
Si       -4.185797927    12.384446705    -0.194892144
 C       -5.995143661    12.264334691    -0.424190567
 C       -6.927280385    12.855527972     0.333852110
 C       -8.368095603    12.725719758     0.105426879
 C       -9.253202523    13.392751497     0.966987151
 C      -10.623385537    13.301475287     0.792917634
 C      -11.154707730    12.555679092    -0.280847059
 C      -10.272646226    11.882038829    -1.140337728
 C       -8.899784213    11.954087821    -0.929495741
 N      -12.560179982    12.493553590    -0.414778669
 C      -13.258050218    13.799842626    -0.437303363
 C      -13.083814637    11.532921080    -1.399201473
 C      -12.509602021    14.953189196    -1.124527879
 C      -12.211048309    14.681625338    -2.610025960
 N      -11.116513415    15.514839766    -3.144134736
 C      -11.292363371    16.909913901    -3.051788378
 C      -12.569454502    17.462565211    -3.289528222
 C      -12.768175622    18.830465241    -3.204955082
 C      -11.704037451    19.702518824    -2.931069521
 C      -10.434810839    19.155840993    -2.726802134
 C      -10.221492706    17.784349549    -2.791178382
 C       -9.784126197    14.988632021    -2.800865926
 C      -11.972316703    21.139052796    -2.853259921
 C      -11.040794130    22.068114075    -2.598816675
Si      -11.384708623    23.861258954    -2.503360538
 C      -12.786897541    24.344835436    -3.591716748
 C      -12.975450890    23.681578865    -4.811743474
 C      -14.030168651    24.032136635    -5.649836921
 C      -14.914540524    25.060564660    -5.297837012
 C      -14.718966566    25.725776204    -4.084491847
 C      -13.665724409    25.374220387    -3.240569183
 C      -16.004526802    25.390905949    -6.209819704
 C      -16.921761041    26.348643821    -5.992364054
 C      -18.011317090    26.677887987    -6.905387484
 C      -18.205784543    26.012050313    -8.118228162
 C      -19.261142629    26.359313864    -8.961513037
 C      -20.143569041    27.385913980    -8.611157698
 C      -19.950581751    28.055640585    -7.395127857
 C      -18.899211456    27.703532398    -6.553452633
Si      -21.541296306    27.856547190    -9.712653975
 C      -21.368830427    27.092263690   -11.405551201
 C      -23.181495642    27.271886371    -8.943665650
 C      -21.579174278    29.754889037    -9.848974204
 C      -11.762632906    24.319141254    -0.695781052
 C       -9.828156247    24.803074654    -3.059372710
 C       -3.750200747    13.244877477     1.443392074
 C       -3.471118958    13.406029123    -1.632463679
 C       -0.608909286    -0.925233485    -1.548341060
 C       -0.654406930    -0.906225153     1.541166427
 H        1.181428971     2.713690101    -0.512450892
 H        0.227982837     4.947763923    -0.501352013
 H       -3.635129195     3.339956237     0.505789142
 H       -2.723078525     1.086073106     0.510061749
 H       -3.448774593     5.646019436     0.255440420
 H       -0.659421111     6.778628930    -0.466968596
 H       -0.489337833     9.097056040    -0.710699832
 H       -1.422784342    11.344667730    -0.702554589
 H       -5.317120571     9.673447463     0.295052152
 H       -4.337251782     7.450311500     0.293669905
 H       -6.278614833    11.641363827    -1.289681138
 H       -6.680516469    13.487382673     1.196785886
 H       -8.858269308    13.985291484     1.793092019
 H      -11.297550964    13.796544419     1.488181290
 H      -10.646848351    11.295592158    -1.973439962
 H       -8.234203565    11.407045894    -1.599433993
 H      -14.176594760    11.443888680    -1.266777526
 H      -12.659146853    10.533201733    -1.194332159
 H      -12.879275287    11.795788103    -2.448579270
 H       -9.766300755    13.893783453    -2.947249811
 H       -9.479931066    15.190120240    -1.760232549
 H       -9.034270256    15.417845216    -3.488699980
 H      -13.405378889    16.815285258    -3.538281648
 H      -13.767515074    19.235152457    -3.370400874
 H       -9.589629065    19.811396547    -2.512572574
 H       -9.220235394    17.401189635    -2.620797799
 H      -13.027188699    21.391206146    -3.034788314
 H       -9.992734993    21.790266484    -2.412286268
 H      -12.313550906    22.872684416    -5.140242112
 H      -14.165060835    23.501121316    -6.590330046
 H      -15.390977767    26.528572566    -3.787490183
 H      -13.563539277    25.931363521    -2.305429995
 H      -16.035287018    24.788382056    -7.122518734
 H      -16.891271867    26.951657198    -5.080192155
 H      -17.531070513    25.211535097    -8.416162717
 H      -19.362058100    25.802136500    -9.896986479
 H      -20.608178580    28.866562181    -7.069338927
 H      -18.766246283    28.234386597    -5.612688449
 H      -14.260094964    13.671621638    -0.901237305
 H      -13.445087016    14.073497729     0.630093663
 H      -13.100000486    15.885528915    -1.025484680
 H      -11.560853962    15.161848834    -0.588770599
 H      -11.933514906    13.614655149    -2.765708138
 H      -13.119311906    14.851464955    -3.229723925
 H        2.262358964    -1.029821850     0.045428755
 H        2.261695906     0.547347022     0.874462767
 H        2.274792115     0.474625611    -0.908798686
 H      -22.190470313    27.410990842   -12.071593260
 H      -21.386524411    25.989248441   -11.360464884
 H      -20.419058129    27.395605353   -11.882397651
 H      -23.980935680    27.536977794    -9.694588422
 C      -23.219644807    25.748375080    -8.723780211
 C      -23.525614999    27.970000492    -7.615806763
 H      -21.727822167    30.137426766    -8.797315283
 C      -20.254249928    30.334017756   -10.377231186
 C      -22.737923026    30.285585295   -10.711631800
 H      -11.918449876    25.436379918    -0.681179882
 C      -13.048441370    23.648277138    -0.180042008
 C      -10.607761408    23.989317320     0.267021113
 H       -9.002794618    24.482119404    -2.360545908
 C       -9.408099144    24.438018483    -4.494554088
 C       -9.976933318    26.330868892    -2.955061091
 H       -4.307053440    14.226363282     1.436380946
 C       -4.212764110    12.437966913     2.670349026
 C       -2.248996879    13.550783175     1.590894467
 H       -2.363048622    13.487936780    -1.436193559
 C       -3.662296944    12.718518624    -2.996071799
 C       -4.050114114    14.830091704    -1.702799821
 H       -0.107369856    -1.935506089    -1.515862304
 C       -2.131262035    -1.150298882    -1.574708514
 C       -0.191358588    -0.226357247    -2.855231329
 H       -1.779048837    -0.910259910     1.443354741
 C       -0.185313274    -2.368737575     1.639192214
 C       -0.298736448    -0.176347740     2.849101601
 H      -23.063719833    25.170393547    -9.643715931
 H      -24.203622772    25.448239597    -8.335865293
 H      -22.480335448    25.404890204    -7.985856804
 H      -23.598525634    29.061416666    -7.702865394
 H      -22.807655491    27.741702517    -6.815480480
 H      -24.505563414    27.625743874    -7.254118168
 H      -19.381981187    30.040450648    -9.775644475
 H      -20.287029973    31.432621630   -10.354091418
 H      -20.047523940    30.052931928   -11.418356648
 H      -23.726608462    29.971610273   -10.352785829
 H      -22.656091621    29.991765826   -11.766484543
 H      -22.741786607    31.385303753   -10.699005924
 H      -13.936295911    23.882038708    -0.783761922
 H      -13.270630811    23.990877432     0.840192214
 H      -12.965904068    22.552858380    -0.126840480
 H       -9.668797060    24.496595557     0.011493437
 H      -10.400692563    22.911906869     0.332140439
 H      -10.863973278    24.314277110     1.285717515
 H       -9.227473691    23.363645940    -4.636525372
 H       -8.468176389    24.945712230    -4.753286829
 H      -10.144316710    24.753198443    -5.248067443
 H      -10.184974957    26.680163597    -1.935750552
 H      -10.762484115    26.730322527    -3.612557439
 H       -9.042348239    26.821873499    -3.262806953
 H       -5.287519781    12.210646688     2.668437808
 H       -4.018642236    13.006103340     3.591014897
 H       -3.676668375    11.483821542     2.779096291
 H       -1.858212976    14.208001636     0.803765215
 H       -1.627508060    12.644335283     1.612742838
 H       -2.063531015    14.070046560     2.542613880
 H       -3.239692642    11.704497000    -3.035945079
 H       -3.152675103    13.293299402    -3.782566572
 H       -4.716512102    12.651226613    -3.297734679
 H       -3.871695548    15.417526686    -0.792903968
 H       -5.131427973    14.843582952    -1.901735809
 H       -3.578768212    15.387406472    -2.525030106
 H       -2.503218987    -1.718622984    -0.712893546
 H       -2.409151334    -1.730540190    -2.466739823
 H       -2.700380854    -0.211725792    -1.631927982
 H        0.894256271    -0.099358663    -2.955085754
 H       -0.654797520     0.763305143    -2.976953655
 H       -0.511231765    -0.823970133    -3.720868659
 H       -0.464988631    -2.974615606     0.767707215
 H       -0.648142715    -2.853414205     2.511202256
 H        0.900052625    -2.462065940     1.777118449
 H       -0.653409243     0.864018608     2.875628944
 H        0.779942463    -0.163208322     3.054011703
 H       -0.769777058    -0.682832484     3.703586588

