187   

Si        0.000000000     0.000000000     0.000000000
 C        1.865464522     0.000000000     0.000000000
 C       -0.681905828     1.709411852     0.000000000
 C        0.136439047     2.816469414     0.244845776
 C       -0.395069482     4.106145953     0.241534360
 C       -1.755116634     4.318000609     0.001722515
 C       -2.574503250     3.207021743    -0.240212919
 C       -2.046451132     1.919165031    -0.241962203
 C       -2.355521046     5.647663342    -0.011545613
 C       -1.685535849     6.793237048     0.200222868
 C       -2.288928934     8.121782540     0.186309193
 C       -1.472308861     9.235635891     0.423268106
 C       -2.004379637    10.522434259     0.419635387
 C       -3.371997793    10.723423779     0.196108908
 C       -4.190015814     9.613027189    -0.038023157
 C       -3.651293384     8.327137106    -0.048456294
Si       -4.088898521    12.418767250     0.188562475
 C       -5.893742295    12.330675509     0.466472262
 C       -6.836093672    12.930284984    -0.272872817
 C       -8.272745021    12.827975515    -0.007560303
 C       -9.169946191    13.500277763    -0.850424400
 C      -10.536230869    13.431908838    -0.637738841
 C      -11.067938683    12.640346953     0.400277975
 C      -10.168820363    11.964260106     1.243523848
 C       -8.796511955    12.080763529     1.049300673
 N      -12.470718393    12.592572552     0.590646433
 C      -13.267249320    12.457519014    -0.652261536
 C      -12.938141614    11.707914967     1.671699303
 C      -14.757642269    12.779757500    -0.443541229
 C      -15.006129714    14.201599933     0.099197416
 N      -14.851321165    15.302520853    -0.870143722
 C      -13.518179329    15.727536550    -1.096509061
 C      -12.788271858    16.192964636     0.017585392
 C      -11.482417689    16.621880638    -0.137119923
 C      -10.879492515    16.656552598    -1.405794438
 C      -11.617230773    16.228297656    -2.509943540
 C      -12.925577705    15.774055663    -2.366416987
 C      -15.698890313    15.160103929    -2.063758285
 C       -9.494785063    17.120208910    -1.505051972
 C       -8.807766597    17.200522985    -2.651616385
Si       -7.079840587    17.775262045    -2.803624328
 C       -6.128222080    16.546705733    -3.788361020
 C       -6.597854052    15.234300953    -3.908710027
 C       -5.886081615    14.294823537    -4.651752732
 C       -4.689071944    14.642936865    -5.284843439
 C       -4.218850341    15.956402397    -5.158693170
 C       -4.928318946    16.898436641    -4.417644874
 C       -3.914119643    13.689225761    -6.071728008
 C       -4.261901855    12.405461685    -6.264658973
 C       -3.497668082    11.441619018    -7.048100053
 C       -2.300545360    11.769312021    -7.689135754
 C       -1.603538848    10.813371230    -8.428186690
 C       -2.083212918     9.503786668    -8.529049776
 C       -3.281370525     9.171596569    -7.881997934
 C       -3.979419157    10.129705950    -7.152750756
Si       -1.177198706     8.228787013    -9.499754646
 C        0.550612910     8.789081219    -9.924397235
 C       -1.115886491     6.631549174    -8.465300049
 C       -2.119481483     7.869010930   -11.113659788
 C       -7.044137853    19.469545122    -3.660017550
 C       -6.273338947    17.924381234    -1.087585657
 C       -3.284391846    13.446802511     1.570948312
 C       -3.717928448    13.209225522    -1.501069022
 C       -0.656921135    -0.898946994    -1.544259174
 C       -0.607654299    -0.928766646     1.546593920
 H        1.207341397     2.713733614     0.440360473
 H        0.264146673     4.951479142     0.430507828
 H       -3.636585499     3.349986593    -0.429986123
 H       -2.734023855     1.092072162    -0.439869003
 H       -3.430675962     5.661530682    -0.213050059
 H       -0.610350108     6.780621216     0.401166819
 H       -0.409002222     9.096844239     0.607817850
 H       -1.318184897    11.354160967     0.600605562
 H       -5.264688960     9.712900072    -0.222719308
 H       -4.306341567     7.479336690    -0.239194200
 H       -6.165398940    11.723475833     1.345760827
 H       -6.601855588    13.547012458    -1.152228365
 H       -8.791381935    14.108599863    -1.674371089
 H      -11.203758587    14.006517177    -1.279966608
 H      -10.525875598    11.342126510     2.057182949
 H       -8.124412907    11.557697113     1.731076845
 H      -14.021612229    11.844566702     1.822982705
 H      -12.453772604    12.003974852     2.620064887
 H      -12.743264101    10.639864107     1.485779207
 H      -16.737973159    14.968310435    -1.745918563
 H      -15.390233656    14.356275735    -2.750226108
 H      -15.700488606    16.115636356    -2.618962499
 H      -13.251477037    16.194731396     1.002322682
 H      -10.918779347    16.945396688     0.738734700
 H      -11.171784695    16.247291915    -3.505176415
 H      -13.469037866    15.442488004    -3.244782404
 H       -9.064645417    17.396176632    -0.532059047
 H       -9.269222065    16.928114696    -3.614334454
 H       -7.528356779    14.904061123    -3.434752280
 H       -6.273627511    13.280346934    -4.734206953
 H       -3.289407282    16.247075934    -5.643916120
 H       -4.514113103    17.907978677    -4.353943328
 H       -2.999058504    14.092482200    -6.513525669
 H       -5.180303889    12.005691886    -5.822159699
 H       -1.901785973    12.779523740    -7.618976923
 H       -0.675038649    11.129185388    -8.911488841
 H       -3.702203120     8.162904220    -7.923488352
 H       -4.907597257     9.852753121    -6.655951371
 H      -12.862741151    13.166882151    -1.413789467
 H      -13.166133901    11.434852979    -1.080007529
 H      -15.285197276    12.638641754    -1.406081170
 H      -15.216571345    12.047895852     0.247766348
 H      -16.044526026    14.269573278     0.497850738
 H      -14.322768463    14.383910229     0.963687424
 H        2.263115542    -1.029876056    -0.037889353
 H        2.274618369     0.481435107     0.905505790
 H        2.261711137     0.541018461    -0.878441531
 H        1.104369669     7.998561806   -10.461655339
 H        1.123314726     9.032594435    -9.010929673
 H        0.543808231     9.686162245   -10.567698892
 H       -2.190910501     6.325765074    -8.305884132
 C       -0.395615750     5.469653764    -9.172134702
 C       -0.479205083     6.849625368    -7.080974135
 H       -1.484078496     7.126572844   -11.677841677
 C       -3.505641047     7.237468177   -10.892560047
 C       -2.283854446     9.122124160   -11.993228024
 H       -5.960044118    19.781398180    -3.691250255
 C       -7.561552324    19.408558434    -5.108421680
 C       -7.826896270    20.549265366    -2.892243390
 H       -6.919079370    18.641980291    -0.503595084
 C       -6.240809684    16.582170026    -0.335898973
 C       -4.845166582    18.496646634    -1.133237438
 H       -2.181299019    13.471847038     1.333040498
 C       -3.789482371    14.898671275     1.627680035
 C       -3.456623907    12.802007268     2.958204207
 H       -4.388609104    14.113884731    -1.586793175
 C       -2.265389483    13.686468772    -1.669190354
 C       -4.058978363    12.246301672    -2.652181669
 H       -1.781761313    -0.894663998    -1.448829566
 C       -0.293293230    -0.168954414    -2.850019949
 C       -0.198078910    -2.364543675    -1.644314613
 H       -0.103169199    -1.937538113     1.512972996
 C       -0.192195602    -0.230307608     2.854467962
 C       -2.129276893    -1.158843897     1.573243726
 H       -0.837328200     5.209191833   -10.142413730
 H       -0.454077214     4.561474325    -8.554342866
 H        0.673414734     5.662755598    -9.332054672
 H       -0.981463839     7.629345512    -6.489795119
 H        0.586134301     7.109602831    -7.133308506
 H       -0.543529546     5.926710103    -6.486392527
 H       -3.469437407     6.287948021   -10.343612485
 H       -3.974351210     7.012842060   -11.861736868
 H       -4.200271486     7.906552492   -10.365440854
 H       -1.330434815     9.592564336   -12.265883731
 H       -2.913155537     9.892558232   -11.524849978
 H       -2.776423109     8.856317887   -12.939484346
 H       -7.020968382    18.684893939    -5.734500443
 H       -7.437357754    20.386814200    -5.594524034
 H       -8.631705627    19.167805886    -5.170775192
 H       -7.455617778    20.714124120    -1.872539609
 H       -8.902402393    20.331229814    -2.823776110
 H       -7.741980008    21.515514127    -3.409906964
 H       -7.222452990    16.095417881    -0.242770235
 H       -5.879010675    16.733528481     0.691067983
 H       -5.560141075    15.854048361    -0.800653016
 H       -4.789785914    19.499450883    -1.574424798
 H       -4.142466396    17.850548445    -1.678459741
 H       -4.445902952    18.590426218    -0.112752079
 H       -3.631229452    15.449818432     0.690708800
 H       -3.250641952    15.455464045     2.406984546
 H       -4.856987650    14.967493366     1.881268911
 H       -3.073835751    11.773156360     3.011340844
 H       -4.502140192    12.785065691     3.295052331
 H       -2.898922198    13.375074239     3.712257230
 H       -1.966927640    14.442849639    -0.933206689
 H       -2.141362272    14.154452909    -2.657699554
 H       -1.537117677    12.865299041    -1.627716977
 H       -5.110937506    11.932079924    -2.662239503
 H       -3.439511174    11.338040191    -2.654020405
 H       -3.871662189    12.739093741    -3.618995000
 H       -0.639906894     0.874218732    -2.874532359
 H       -0.766772699    -0.669655978    -3.706419735
 H        0.785795575    -0.163674944    -3.052838859
 H       -0.486989030    -2.970828535    -0.776098485
 H        0.887282700    -2.465464547    -1.776562986
 H       -0.659642462    -2.843108522    -2.520275194
 H        0.893064370    -0.100461154     2.954646820
 H       -0.510879297    -0.829712809     3.719269908
 H       -0.658031207     0.758210592     2.977013474
 H       -2.501213798    -1.719425641     0.706459470
 H       -2.700774769    -0.222424224     1.641026095
 H       -2.403735923    -1.748801738     2.459936310

