187   

Si        0.000000000     0.000000000     0.000000000
 C        1.865386895     0.000000000     0.000000000
 C       -0.676304980     1.712207160     0.000000000
 C        0.143146920     2.811081151    -0.276639366
 C       -0.379347615     4.104247021    -0.274055756
 C       -1.731624261     4.328198720    -0.002896085
 C       -2.552309124     3.225641576     0.270525683
 C       -2.033027953     1.933996266     0.272371131
 C       -2.320735017     5.663184352     0.010438145
 C       -1.644188719     6.798973587    -0.230899875
 C       -2.230030247     8.135261862    -0.218377362
 C       -1.403576293     9.234202492    -0.488756853
 C       -1.916850704    10.528548744    -0.488251349
 C       -3.275112957    10.751792575    -0.231723729
 C       -4.103209503     9.656712868     0.036454756
 C       -3.582973009     8.363115932     0.047884115
Si       -3.965722536    12.456217376    -0.228085551
 C       -5.763416180    12.394112193    -0.545811927
 C       -6.711117772    13.002639187     0.178394156
 C       -8.143534352    12.924429176    -0.114714585
 C       -9.036906806    13.609225840     0.722539322
 C      -10.401470156    13.571907676     0.495024929
 C      -10.925927670    12.787731866    -0.551635831
 C      -10.037052139    12.093461245    -1.385789599
 C       -8.663959209    12.183081769    -1.176400447
 N      -12.333718471    12.785024925    -0.741758698
 C      -13.104464675    12.453154595     0.477712896
 C      -12.825549380    12.063562503    -1.928313756
 C      -12.665038579    11.134765677     1.139658341
 C      -13.406000867    10.838836227     2.454697406
 N      -13.336316864    11.887018678     3.496054210
 C      -12.094911085    12.549615541     3.624484978
 C      -10.923825056    11.770033637     3.734518668
 C       -9.687809403    12.382058438     3.862014142
 C       -9.576288050    13.779160023     3.939104972
 C      -10.741706931    14.544692666     3.862101084
 C      -11.987856370    13.947172597     3.712614456
 C      -14.542011337    12.730732251     3.545645135
 C       -8.248108070    14.383328748     4.073492686
 C       -8.040911554    15.704104112     4.154406303
Si       -6.430164302    16.548591422     4.322848340
 C       -6.486387408    17.759743507     5.703166093
 C       -7.477767809    17.671495860     6.687612068
 C       -7.517034920    18.591685603     7.732568360
 C       -6.563699880    19.613998242     7.824270534
 C       -5.571798618    19.695471862     6.842307748
 C       -5.531573234    18.778635584     5.793179473
 C       -6.646407818    20.554037245     8.937448576
 C       -5.799284362    21.577795334     9.138110733
 C       -5.880450233    22.518630801    10.250491712
 C       -6.870017958    22.440625961    11.233713796
 C       -6.909806751    23.362021897    12.280256704
 C       -5.962570828    24.387433559    12.361806267
 C       -4.969375977    24.468300393    11.376158844
 C       -4.928705144    23.543863181    10.336335500
Si       -6.001009945    25.611465277    13.736339153
 C       -7.610401783    25.537491675    14.676501463
 C       -4.571034419    25.255649770    14.941283639
 C       -5.750962765    27.347280071    12.995935794
 C       -5.026847112    15.301028082     4.602376656
 C       -6.095946859    17.478987169     2.693417827
 C       -3.614885921    13.201311539     1.489157694
 C       -3.136509888    13.533175820    -1.554418452
 C       -0.611856097    -0.923324766    -1.547956068
 C       -0.658196657    -0.902123431     1.541548008
 H        1.208299950     2.699204397    -0.497321706
 H        0.280947760     4.942661999    -0.488369157
 H       -3.608449014     3.377880903     0.484795179
 H       -2.721021034     1.113542100     0.494976100
 H       -3.390337804     5.689536506     0.237958714
 H       -0.574426505     6.771352563    -0.458553138
 H       -0.347436298     9.077603635    -0.699439388
 H       -1.224378398    11.347553176    -0.700627372
 H       -5.172006658     9.774809073     0.243974783
 H       -4.245351470     7.526755877     0.263188852
 H       -6.024752318    11.797071638    -1.435310386
 H       -6.485518244    13.610186056     1.066169340
 H       -8.652586120    14.202364057     1.557021619
 H      -11.071903435    14.139399326     1.139148438
 H      -10.403965295    11.479250357    -2.201487271
 H       -7.993014306    11.647107928    -1.848476190
 H      -13.906601815    12.254524209    -2.041183480
 H      -12.665024818    10.975108100    -1.894433333
 H      -12.334336048    12.470793707    -2.830351094
 H      -15.432300565    12.082532917     3.623273636
 H      -14.667563760    13.394224772     2.675999160
 H      -14.520657846    13.344990422     4.464205401
 H      -10.994265537    10.685701866     3.711594833
 H       -8.790260470    11.764477177     3.915673039
 H      -10.684932385    15.633264668     3.918158426
 H      -12.867547244    14.579250901     3.646766524
 H       -7.435382845    13.646748610     4.107618625
 H       -8.886676013    16.412488118     4.112175851
 H       -8.244432162    16.890142177     6.670234124
 H       -8.297683532    18.510797336     8.486780452
 H       -4.819029700    20.480135424     6.890479925
 H       -4.733472158    18.893464503     5.054445665
 H       -7.473019933    20.371006013     9.630216963
 H       -4.972943100    21.760060425     8.444727374
 H       -7.621714827    21.654583315    11.190964304
 H       -7.707106947    23.249116527    13.020074687
 H       -4.203185782    25.248713724    11.388025889
 H       -4.148890886    23.622017869     9.581165184
 H      -12.975093990    13.301823514     1.190203350
 H      -14.184297783    12.423151033     0.221915740
 H      -12.813503932    10.291424724     0.440514032
 H      -11.570096071    11.170377830     1.328452904
 H      -14.473063628    10.610127291     2.241807898
 H      -12.978693799     9.911620440     2.909589463
 H        2.263177889    -1.029602274     0.045626726
 H        2.261592886     0.547516797     0.874508997
 H        2.274818956     0.474371964    -0.909025124
 H       -7.642587754    26.304003912    15.471362355
 H       -7.759324141    24.554446578    15.156544393
 H       -8.469684272    25.719266641    14.005690586
 H       -4.687969233    26.000049775    15.781193292
 C       -4.645862950    23.840543615    15.543518674
 C       -3.176773601    25.453652347    14.320151344
 H       -4.741925394    27.325229298    12.490179793
 C       -6.805164237    27.689113888    11.927480167
 C       -5.724432536    28.467425226    14.051036612
 H       -5.115460698    14.549393622     3.762211901
 C       -3.623448234    15.928334235     4.530316137
 C       -5.163374389    14.547412691     5.937229266
 H       -5.086153597    17.965862817     2.818930398
 C       -6.032709292    16.557659205     1.463761159
 C       -7.129736101    18.588952924     2.432514985
 H       -4.174655748    14.181410192     1.530205589
 C       -4.136048893    12.298649734     2.622682562
 C       -2.125442749    13.497482000     1.734821813
 H       -2.039273346    13.564105641    -1.292841636
 C       -3.270555135    12.936135330    -2.966500075
 C       -3.663562473    14.979444470    -1.567154142
 H       -0.113386819    -1.935152507    -1.515764587
 C       -2.134921538    -1.143808876    -1.573891347
 C       -0.192587578    -0.225998893    -2.855156181
 H       -1.782702016    -0.903961616     1.441965820
 C       -0.192082529    -2.365433059     1.642428806
 C       -0.302925114    -0.171017500     2.848895461
 H       -5.582720371    23.643413098    16.080281049
 H       -3.837358806    23.699147890    16.275105094
 H       -4.520957619    23.048931937    14.790657255
 H       -3.009240035    26.468780655    13.938705701
 H       -2.969241495    24.747230803    13.504042329
 H       -2.399924864    25.279819838    15.079115726
 H       -6.844470529    26.957966130    11.107283633
 H       -6.571654393    28.658033981    11.463578789
 H       -7.819434484    27.779649340    12.338320793
 H       -4.946587433    28.328939826    14.813051733
 H       -6.684084801    28.589016791    14.570690312
 H       -5.512672448    29.432500720    13.567986989
 H       -3.402716672    16.391792369     3.560164819
 H       -2.857754267    15.152922039     4.680952393
 H       -3.448728447    16.681134089     5.311518775
 H       -6.127112103    14.033920149     6.057738985
 H       -5.031346489    15.201832579     6.810978792
 H       -4.387934647    13.772356484     6.015989301
 H       -5.247778707    15.792927538     1.534992676
 H       -5.805698113    17.145233378     0.562444410
 H       -6.985020956    16.046272543     1.259575116
 H       -7.207768265    19.316053056     3.252628107
 H       -8.138076663    18.198217990     2.237399542
 H       -6.845961620    19.166062848     1.540827884
 H       -5.218333381    12.114928356     2.571708515
 H       -3.941831752    12.765938510     3.599731862
 H       -3.637477325    11.319097826     2.653385429
 H       -1.696399077    14.205206707     1.014322682
 H       -1.502011679    12.592522013     1.728531646
 H       -1.992467327    13.953016911     2.727481493
 H       -2.876151198    11.913465648    -3.047091042
 H       -2.702438510    13.541054828    -3.687467166
 H       -4.308127234    12.921063931    -3.328076561
 H       -3.527212734    15.501584045    -0.611101089
 H       -4.728512576    15.043285628    -1.834101102
 H       -3.123092232    15.570097485    -2.320384732
 H       -2.507784189    -1.713434369    -0.713330883
 H       -2.415134718    -1.720801165    -2.467302742
 H       -2.701420507    -0.203495314    -1.628190381
 H        0.893336326    -0.101672897    -2.955057006
 H       -0.653519839     0.764821256    -2.977167227
 H       -0.513949210    -0.823090685    -3.720576420
 H       -0.471258606    -2.971996791     0.771271243
 H       -0.657417316    -2.848038138     2.514244609
 H        0.892860469    -2.460563946     1.782491596
 H       -0.656946481     0.869619037     2.873845586
 H        0.775623174    -0.158260535     3.054558164
 H       -0.774869639    -0.676169214     3.703650619

