187   

Si        0.000000000     0.000000000     0.000000000
 C        1.865307902     0.000000000     0.000000000
 C       -0.677365414     1.711701685     0.000000000
 C        0.121609774     2.802275806    -0.357977769
 C       -0.400618348     4.095602746    -0.354945145
 C       -1.732322428     4.327783203    -0.001217927
 C       -2.532948726     3.233318763     0.352360068
 C       -2.014351245     1.941429133     0.351805647
 C       -2.321598750     5.662533693     0.016268465
 C       -1.666223369     6.792821859    -0.298264774
 C       -2.256391342     8.127255760    -0.280488269
 C       -1.455854492     9.222405005    -0.632469914
 C       -1.975195160    10.514226466    -0.630091169
 C       -3.313077279    10.739928901    -0.282224245
 C       -4.114388277     9.648847832     0.069496626
 C       -3.588554558     8.357296016     0.073404240
Si       -4.004394534    12.444803078    -0.277435530
 C       -5.829713799    12.372628625    -0.314764032
 C       -6.660132743    13.028568564     0.506264762
 C       -8.119704160    12.939545053     0.438320849
 C       -8.888009783    13.673895113     1.353030859
 C      -10.272180524    13.624062937     1.330684410
 C      -10.944792497    12.863501404     0.349890135
 C      -10.173933805    12.125276941    -0.568398190
 C       -8.786926808    12.151027493    -0.502898341
 N      -12.350877313    12.821783392     0.338917304
 C      -13.060084831    14.047420837     0.749436508
 C      -12.987460090    12.151439916    -0.808210997
 C      -12.767761168    15.248436081    -0.167919220
 C      -13.800979859    16.378282848    -0.028222797
 N      -15.205688597    16.016059528    -0.330571616
 C      -15.376493402    15.061923577    -1.360179860
 C      -14.771877348    15.320932920    -2.608651421
 C      -14.908661695    14.418896299    -3.649628204
 C      -15.673779956    13.251430700    -3.499169638
 C      -16.292137062    13.012695555    -2.270599191
 C      -16.159058215    13.906001039    -1.212645742
 C      -16.031674004    15.836003565     0.874583097
 C      -15.785292191    12.331188587    -4.632550691
 C      -16.486098313    11.189760367    -4.605780388
Si      -16.630866157    10.034699653    -6.016139544
 C      -16.522737551    10.892319297    -7.638935696
 C      -16.973965957    12.212540864    -7.765550206
 C      -16.896243823    12.870324822    -8.990207492
 C      -16.379585267    12.223228587   -10.120408212
 C      -15.938855367    10.902989232    -9.992955563
 C      -16.011314716    10.242509145    -8.767057554
 C      -16.318598288    12.954404020   -11.381684411
 C      -15.843567327    12.453409717   -12.534602634
 C      -15.782542761    13.184530678   -13.795949310
 C      -16.222828169    14.504274796   -13.924443740
 C      -16.145920588    15.165646025   -15.150170054
 C      -15.631535760    14.517488661   -16.277308758
 C      -15.190394889    13.193083619   -16.151247787
 C      -15.263970065    12.537198755   -14.925680650
Si      -15.522724212    15.375134556   -17.902641764
 C      -16.469087097    16.982699590   -17.895443363
 C      -13.699986873    15.744699500   -18.308217641
 C      -16.216747409    14.207699920   -19.236187475
 C      -15.249190485     8.734427461    -5.870276424
 C      -18.314095817     9.156878819    -5.900363828
 C       -3.383124732    13.367738112     1.264802770
 C       -3.404020433    13.369353310    -1.828827217
 C       -0.619726362    -0.918490239    -1.547569948
 C       -0.653139319    -0.908801677     1.540177244
 H        1.170306008     2.683519569    -0.643964929
 H        0.243481867     4.927728457    -0.633280632
 H       -3.573053476     3.392068389     0.631050347
 H       -2.686759384     1.127550022     0.637124903
 H       -3.374090796     5.693854333     0.313318072
 H       -0.613884206     6.761787111    -0.595208816
 H       -0.415796713     9.064379857    -0.910558251
 H       -1.303602777    11.329879721    -0.911465188
 H       -5.165439636     9.767989879     0.353162874
 H       -4.230603308     7.524436011     0.354278522
 H       -6.221097452    11.722389605    -1.115229797
 H       -6.304810466    13.689882872     1.307259952
 H       -8.390526388    14.287615182     2.104493807
 H      -10.836472226    14.177628629     2.075162899
 H      -10.650341923    11.521448003    -1.334532999
 H       -8.214322214    11.555735395    -1.216286002
 H      -14.087318133    12.216137173    -0.725090617
 H      -12.724610846    11.078601779    -0.791152281
 H      -12.703642779    12.578512110    -1.784451094
 H      -15.948284381    16.739905274     1.503695556
 H      -15.764508614    14.959838217     1.485444419
 H      -17.093708705    15.754405637     0.579996509
 H      -14.202404184    16.236941149    -2.749144746
 H      -14.424923509    14.627061985    -4.605305867
 H      -16.896304243    12.115343279    -2.129849240
 H      -16.655122463    13.685654888    -0.272821452
 H      -15.237666183    12.672050723    -5.522767184
 H      -17.018101718    10.867171806    -3.697645873
 H      -17.394469341    12.765572428    -6.918751915
 H      -17.245678351    13.898300206    -9.067970279
 H      -15.534266358    10.376810794   -10.855527707
 H      -15.651881536     9.210486697    -8.730239703
 H      -16.698419868    13.979304089   -11.334966964
 H      -15.464189756    11.428384249   -12.581575237
 H      -16.631096472    15.030300153   -13.063400033
 H      -16.505298922    16.197734467   -15.188478763
 H      -14.780439939    12.635680511   -16.998296962
 H      -14.915699913    11.509044347   -14.847312233
 H      -14.150254251    13.818343407     0.760744485
 H      -12.790295893    14.282011321     1.802738709
 H      -11.756008812    15.645958508     0.045846904
 H      -12.721127331    14.905864097    -1.221905204
 H      -13.746797906    16.814286070     0.992827400
 H      -13.532811343    17.204471897    -0.731396794
 H        2.263160083    -1.028808010     0.059375991
 H        2.260375924     0.559407883     0.867568761
 H        2.275570121     0.462784578    -0.914504979
 H      -16.434704672    17.468757196   -18.886896530
 H      -16.057100007    17.696562430   -17.160746277
 H      -17.532477414    16.815908875   -17.645019156
 H      -13.716281336    16.331300311   -19.272075394
 C      -13.021479303    16.612692738   -17.232439461
 C      -12.846998400    14.483543958   -18.533435028
 H      -15.569759075    13.283077285   -19.204406900
 C      -17.666008304    13.777221936   -18.945987130
 C      -16.141032181    14.787094598   -20.659961320
 H      -15.421413410     7.998127277    -6.707427582
 C      -13.849568376     9.348744964    -6.051366628
 C      -15.285415969     7.958692704    -4.541398251
 H      -18.328414128     8.637405781    -4.899110983
 C      -19.490696811    10.148434665    -5.941840952
 C      -18.517104877     8.093414354    -6.993407107
 H       -3.920172769    14.360254786     1.268724616
 C       -3.730910284    12.627692175     2.569534612
 C       -1.869594242    13.646795251     1.244432144
 H       -2.279540740    13.414782361    -1.748880290
 C       -3.757797444    12.627462350    -3.130045975
 C       -3.934502096    14.811383685    -1.912328170
 H       -0.136950966    -1.937638188    -1.512800666
 C       -2.146219270    -1.114719180    -1.573492302
 C       -0.188473921    -0.230376887    -2.855705171
 H       -1.777757093    -0.915216133     1.442602306
 C       -0.181461506    -2.370692191     1.636452272
 C       -0.298427379    -0.180006302     2.848990700
 H      -13.524204372    17.574004803   -17.065613889
 H      -11.992510032    16.853056248   -17.536238666
 H      -12.944404120    16.104712730   -16.260292675
 H      -13.221140110    13.842023232   -19.341193758
 H      -12.750359703    13.866827141   -17.628875229
 H      -11.823847568    14.769186519   -18.818693998
 H      -17.787731357    13.298208072   -17.963872205
 H      -17.996144076    13.038645539   -19.690322412
 H      -18.380318644    14.609469844   -18.998799955
 H      -15.121614015    15.053501173   -20.967672726
 H      -16.774009783    15.674041818   -20.795615311
 H      -16.496500864    14.042580564   -21.387173809
 H      -13.722644927     9.869786589    -7.010691671
 H      -13.084882258     8.559597402    -6.027164494
 H      -13.587168327    10.058201160    -5.253085944
 H      -16.231599759     7.429739142    -4.370599211
 H      -15.095116959     8.598269519    -3.668033883
 H      -14.499977573     7.188989585    -4.535040924
 H      -19.447766492    10.911295774    -5.152582664
 H      -20.440403545     9.612897751    -5.801624548
 H      -19.573683333    10.672273344    -6.905250861
 H      -17.769750887     7.290312155    -6.964507034
 H      -18.515837090     8.516139811    -8.008518218
 H      -19.495092531     7.606436369    -6.867223368
 H       -4.803983472    12.422872516     2.686625142
 H       -3.434954898    13.233018437     3.437670935
 H       -3.202385605    11.668397216     2.668413779
 H       -1.549437119    14.253860110     0.388219573
 H       -1.265290458    12.728751411     1.251977178
 H       -1.579745796    14.209533593     2.143792431
 H       -3.374798545    11.597639697    -3.162079814
 H       -3.314622586    13.146059168    -3.992017108
 H       -4.839397281    12.585681155    -3.318427811
 H       -3.643027150    15.432618210    -1.055743678
 H       -5.029370705    14.859947256    -2.001172447
 H       -3.531399011    15.309789927    -2.805420936
 H       -2.526472132    -1.686669841    -0.717699073
 H       -2.436971195    -1.678506790    -2.471879394
 H       -2.698266613    -0.165129212    -1.617151463
 H        0.899384665    -0.124480219    -2.955229682
 H       -0.633154916     0.767606958    -2.979683391
 H       -0.519350756    -0.823607543    -3.720207110
 H       -0.460914430    -2.976203510     0.764669329
 H       -0.642822245    -2.856875193     2.508392916
 H        0.904143769    -2.462404190     1.773434796
 H       -0.654795115     0.859765453     2.876952752
 H        0.780358515    -0.165008548     3.053350308
 H       -0.767986096    -0.688530827     3.703028764

