187   

Si        0.000000000     0.000000000     0.000000000
 C        1.865039716     0.000000000     0.000000000
 C       -0.686475286     1.707757363     0.000000000
 C        0.100561096     2.802974252    -0.369923670
 C       -0.431264366     4.092535557    -0.365868292
 C       -1.760693455     4.315789241     0.001680053
 C       -2.549454526     3.216548510     0.367134329
 C       -2.021549377     1.928608610     0.364690500
 C       -2.361651624     5.645081242     0.021498705
 C       -1.723072568     6.782052732    -0.303265135
 C       -2.331430975     8.108466541    -0.280909631
 C       -3.663406303     8.317863712     0.089044257
 C       -4.206838308     9.601281687     0.097272510
 C       -3.425000798    10.705945658    -0.258930959
 C       -2.091079599    10.500319843    -0.630759404
 C       -1.553762426     9.215165185    -0.644847958
Si       -4.145877829    12.397992650    -0.246797588
 C       -2.818803684    13.654371155    -0.239737942
 C       -2.736690172    14.703780175    -1.068136703
 C       -1.660126552    15.694884980    -1.038433265
 C       -1.687256627    16.750408512    -1.960849643
 C       -0.693965997    17.715748454    -1.976859694
 C        0.346664753    17.687675476    -1.023073136
 C        0.373381022    16.628175966    -0.095337715
 C       -0.603033872    15.641193489    -0.125797167
 N        1.350871902    18.671356123    -1.046478313
 C        0.972621874    20.008235909    -1.538044523
 C        2.257657199    18.727064387     0.113921661
 C       -0.090414272    20.693406823    -0.661425567
 C       -0.273825997    22.181740374    -0.999492655
 N        0.937335801    23.025293251    -0.879765321
 C        1.807114784    22.690723898     0.183272436
 C        1.261938430    22.598937602     1.481469049
 C        2.072029070    22.274345107     2.556151352
 C        3.449665585    22.064520391     2.386327263
 C        3.988691485    22.180064631     1.103679685
 C        3.186794573    22.495656040     0.012087748
 C        1.566237384    23.327820052    -2.175737178
 C        4.259668528    21.723423425     3.557441872
 C        5.580208534    21.501107185     3.518338070
Si        6.599883450    21.074609685     4.975708709
 C        5.936958766    21.798112572     6.530994944
 C        5.200652331    22.987575970     6.495162838
 C        4.694378276    23.543125991     7.669165342
 C        4.924291452    22.932555621     8.905279907
 C        5.670359784    21.747190055     8.939971693
 C        6.173528100    21.186925265     7.768437154
 C        4.413924201    23.478447118    10.158650454
 C        3.687449106    24.604262357    10.261840279
 C        3.175833370    25.152476722    11.513517752
 C        3.399079833    24.543208313    12.750793875
 C        2.890825677    25.102555363    13.923233604
 C        2.138252259    26.280259190    13.881597648
 C        1.910253651    26.891644593    12.641082464
 C        2.424475303    26.334898362    11.473604844
Si        1.459601219    27.032745818    15.418555486
 C        1.637564470    25.888015720    16.880754088
 C        2.383689282    28.652491922    15.800825477
 C       -0.376064731    27.436290523    15.117298580
 C        6.681427834    19.179396670     5.122852179
 C        8.356903073    21.744438473     4.689396118
 C       -5.272737353    12.603388332    -1.765692135
 C       -5.195131035    12.618999890     1.325812097
 C       -0.617268639    -0.918513209    -1.548866672
 C       -0.650779943    -0.912876570     1.539047740
 H        1.147148656     2.690672762    -0.666054066
 H        0.203004666     4.928628662    -0.654734234
 H       -3.587680011     3.368443155     0.656228338
 H       -2.685328862     1.110761399     0.658839185
 H       -3.411226772     5.666336082     0.329966864
 H       -0.674076725     6.763748676    -0.612327905
 H       -4.289727788     7.474960615     0.374728730
 H       -5.254397736     9.702509123     0.394212062
 H       -1.436430920    11.328350036    -0.921930180
 H       -0.515937287     9.073016804    -0.940279815
 H       -2.058977334    13.485437112     0.541008809
 H       -3.481883571    14.902754838    -1.849856503
 H       -2.496501577    16.809219356    -2.689255761
 H       -0.726461666    18.496767061    -2.730406576
 H        1.161472176    16.562293976     0.648285149
 H       -0.547560081    14.821171445     0.592278974
 H        2.948086748    19.584366667     0.020148523
 H        2.877459996    17.812519688     0.130383355
 H        1.732900417    18.825802183     1.078508448
 H        0.807616848    23.769563935    -2.846059092
 H        2.013744845    22.457732530    -2.680467163
 H        2.346319323    24.097514441    -2.033335447
 H        0.202162668    22.789869821     1.633713980
 H        1.632990553    22.194573618     3.551879746
 H        5.056778274    22.024414501     0.945489735
 H        3.642124070    22.573016064    -0.970101536
 H        3.674870901    21.669756594     4.486817732
 H        6.139310102    21.551021684     2.571338882
 H        4.997063432    23.516640303     5.557834520
 H        4.117825552    24.464862236     7.613737628
 H        5.861691582    21.256384128     9.892275201
 H        6.748541566    20.261297174     7.858137039
 H        4.666684942    22.895088926    11.048723596
 H        3.435585668    25.187239751     9.370838172
 H        3.977005064    23.622786538    12.810092629
 H        3.101572043    24.582043623    14.861549390
 H        1.327220708    27.812286927    12.547114086
 H        2.238091348    26.824929772    10.519791745
 H        1.899773624    20.625605168    -1.581736525
 H        0.619832314    19.918629111    -2.589080893
 H       -1.060585723    20.168903719    -0.767735772
 H        0.182294536    20.578066580     0.407409850
 H       -0.693046548    22.287760035    -2.023643394
 H       -1.034357202    22.621152158    -0.308767730
 H        2.262462765    -1.029306177     0.053547589
 H        2.260580146     0.554468576     0.870533264
 H        2.275619763     0.467927079    -0.911781620
 H        1.192473667    26.331361845    17.789458050
 H        2.696938120    25.669434059    17.102225303
 H        1.125424188    24.926262036    16.696569521
 H        1.967674127    29.013618363    16.785724733
 C        3.899065016    28.439648913    15.971700611
 C        2.156873055    29.758778594    14.755116087
 H       -0.395141523    28.159019871    14.250228478
 C       -1.192675636    26.195543289    14.712870688
 C       -1.059956254    28.118557677    16.315305378
 H        7.387729069    18.961028510     5.975084880
 C        5.313224836    18.562576353     5.464456938
 C        7.235548980    18.496590644     3.859784215
 H        8.726563178    21.258151560     3.740997011
 C        8.370057667    23.269579949     4.481925449
 C        9.333174446    21.385077265     5.822904190
 H       -5.601501726    13.682985773    -1.762728516
 C       -4.530978812    12.329740224    -3.086935942
 C       -6.534808830    11.723714751    -1.717889334
 H       -6.017064486    11.848710637     1.261856244
 C       -4.392907589    12.351380627     2.611744867
 C       -5.849936528    14.008128547     1.421716358
 H       -0.128465627    -1.934849022    -1.517252617
 C       -2.142656199    -1.123167191    -1.572782546
 C       -0.192086011    -0.224521455    -2.855863638
 H       -1.775410016    -0.921881945     1.441477639
 C       -0.175800262    -2.373809876     1.633251897
 C       -0.297718990    -0.185122948     2.848878195
 H        4.153010130    27.720871570    16.761387164
 H        4.383465529    29.386361287    16.250957524
 H        4.389937378    28.104232082    15.046697681
 H        1.100463472    30.024418867    14.622775309
 H        2.567877626    29.503460392    13.768323910
 H        2.667387933    30.681222609    15.068681048
 H       -0.795535951    25.686187137    13.823113454
 H       -2.223339063    26.486769088    14.464860912
 H       -1.267056765    25.449713330    15.515284411
 H       -0.573691910    29.054859204    16.618353145
 H       -1.119745811    27.470987879    17.200077044
 H       -2.096257126    28.380503154    16.056427657
 H        4.875794281    18.957934414     6.392009153
 H        5.413702313    17.477838719     5.610281530
 H        4.570809178    18.699442319     4.664937629
 H        8.244289392    18.833142789     3.588637265
 H        6.588465855    18.632613753     2.981910158
 H        7.308812899    17.411324660     4.021680398
 H        7.737919721    23.602650096     3.647535703
 H        9.389489337    23.610295181     4.251528301
 H        8.056248870    23.825239923     5.377602844
 H        9.452651069    20.304080327     5.969359735
 H        9.047821691    21.825008937     6.789446578
 H       10.335366774    21.775883097     5.593875755
 H       -3.631731766    12.946181177    -3.223008456
 H       -5.187322593    12.547371046    -3.940973966
 H       -4.225711963    11.278602881    -3.193159746
 H       -7.174502911    11.925745348    -0.849518371
 H       -6.307705681    10.648386235    -1.727044272
 H       -7.156269135    11.910940848    -2.605687444
 H       -3.929002698    11.355144432     2.635865123
 H       -5.056384112    12.401641224     3.486746568
 H       -3.599574973    13.091744461     2.783553557
 H       -6.508610284    14.238447964     0.574567363
 H       -5.115314793    14.822269007     1.502702482
 H       -6.476018091    14.068059894     2.323303039
 H       -2.518741862    -1.697418006    -0.716702668
 H       -2.431525477    -1.688224644    -2.470973971
 H       -2.699828214    -0.176508489    -1.615284106
 H        0.894911889    -0.110887436    -2.956347013
 H       -0.643809367     0.770657927    -2.977070577
 H       -0.519794561    -0.818064834    -3.721362819
 H       -0.452168847    -2.978172235     0.759663664
 H       -0.637573031    -2.862912752     2.503308478
 H        0.909779253    -2.463103103     1.771968853
 H       -0.656081334     0.853904496     2.878150077
 H        0.781029162    -0.168299330     3.053336505
 H       -0.766326098    -0.695730611     3.702179030

