187   

Si        0.000000000     0.000000000     0.000000000
 C        1.865250344     0.000000000     0.000000000
 C       -0.670949551     1.714550910     0.000000000
 C        0.109744158     2.785628046    -0.447273085
 C       -0.399616230     4.083743823    -0.446761251
 C       -1.700825585     4.340882812    -0.006646742
 C       -2.483654218     3.266139108     0.435355937
 C       -1.977672538     1.968931654     0.436792704
 C       -2.273883158     5.682844438     0.010925801
 C       -1.628700640     6.793254004    -0.384871467
 C       -2.196474213     8.137250853    -0.369527891
 C       -3.497082513     8.401958707     0.069280552
 C       -3.998481246     9.702866950     0.066473214
 C       -3.204029604    10.769016691    -0.368951970
 C       -1.900860069    10.507692173    -0.809718998
 C       -1.406510594     9.205799388    -0.813289347
Si       -3.856368634    12.488983536    -0.376463224
 C       -2.467120237    13.675569882    -0.421197504
 C       -2.341706541    14.705166977    -1.268599995
 C       -1.209839146    15.633494858    -1.269917941
 C       -1.187448936    16.675899512    -2.206160047
 C       -0.138995850    17.581483847    -2.249134691
 C        0.911105957    17.506221639    -1.309242254
 C        0.887129215    16.459207552    -0.366284712
 C       -0.145361553    15.531504935    -0.369245375
 N        1.977431296    18.421322826    -1.347025439
 C        1.738650596    19.724123565    -1.990280057
 C        2.804143493    18.529079677    -0.132188687
 C        0.719391876    20.594445187    -1.237206798
 C        0.375074845    21.848253102    -2.057285140
 N       -0.513960344    22.781548750    -1.344462395
 C       -0.009340244    23.402577229    -0.187650874
 C        1.378456170    23.603626248    -0.028796599
 C        1.874369114    24.215616419     1.111419007
 C        1.015804373    24.696064710     2.109739751
 C       -0.360593739    24.525528511     1.936520336
 C       -0.873078405    23.898160208     0.808928690
 C       -1.907718282    22.307065980    -1.289119976
 C        1.594162243    25.333973057     3.293163682
 C        0.874882097    25.829612259     4.309287798
Si        1.597699685    26.626627103     5.787863152
 C        3.193450959    27.461086462     5.411966219
 C        3.406405768    28.017979829     4.143939507
 C        4.608903521    28.652586014     3.844853081
 C        5.621948351    28.759665423     4.807043347
 C        5.402924003    28.211651177     6.073846794
 C        4.201380391    27.571241817     6.375257673
 C        6.864331784    29.433909918     4.445246757
 C        7.913358886    29.600572019     5.268487211
 C        9.155190002    30.275177168     4.905000189
 C        9.372712256    30.822600240     3.638006192
 C       10.575692332    31.459298183     3.332991480
 C       11.586209120    31.568700028     4.293407151
 C       11.370012448    31.021451155     5.565445704
 C       10.170747132    30.381316209     5.864954134
Si       13.179352381    32.406005279     3.906320216
 C       13.080071653    33.365171917     2.309476583
 C       13.606717161    33.572317226     5.348833184
 C       14.558266421    31.102826292     3.752169867
 C        0.365573154    27.927055603     6.427992650
 C        1.848637097    25.306835395     7.135080978
 C       -5.003133602    12.712762876    -1.876820771
 C       -4.860782058    12.792101899     1.211194562
 C       -0.626760422    -0.909613002    -1.549814344
 C       -0.651931655    -0.915733399     1.536502137
 H        1.134566926     2.647586213    -0.803058637
 H        0.230081013     4.899995976    -0.796303819
 H       -3.500040065     3.443985710     0.781497922
 H       -2.635664356     1.170963030     0.791729671
 H       -3.302014318     5.737323581     0.379945336
 H       -0.600231922     6.736636933    -0.754133276
 H       -4.131501475     7.589245894     0.417520149
 H       -5.023302033     9.848694248     0.418562216
 H       -1.237639205    11.303749737    -1.164251082
 H       -0.392714653     9.020048316    -1.163179689
 H       -1.702930533    13.478459954     0.349358365
 H       -3.087379912    14.933417518    -2.041256468
 H       -2.002046717    16.773157599    -2.924618586
 H       -0.142323893    18.354601127    -3.011336550
 H        1.681607962    16.355582417     0.366093440
 H       -0.127518230    14.719591893     0.360234859
 H        3.559525219    19.323434639    -0.253340610
 H        3.356519191    17.583219962     0.015068437
 H        2.217461313    18.746198665     0.775902583
 H       -2.169812955    21.784439698    -2.224142422
 H       -2.583467703    23.177986261    -1.210310943
 H       -2.103599176    21.624388247    -0.445643553
 H        2.073611895    23.272132026    -0.794190528
 H        2.952831416    24.337182674     1.223514511
 H       -1.052571989    24.891501526     2.696734968
 H       -1.948716515    23.790390419     0.713789696
 H        2.692556465    25.375672998     3.267568450
 H       -0.223774438    25.766707228     4.314764970
 H        2.647956594    27.970404482     3.354903595
 H        4.759261466    29.072584813     2.852010056
 H        6.172918950    28.282111396     6.839733962
 H        4.088461235    27.162971720     7.383199752
 H        6.896332585    29.813858484     3.419744567
 H        7.882049533    29.221211529     6.293957725
 H        8.600479861    30.755163789     2.873923857
 H       10.687926764    31.866334912     2.324259601
 H       12.123426223    31.077855681     6.356300504
 H       10.021994453    29.961112558     6.857801298
 H        2.715087920    20.254297038    -2.073668520
 H        1.408673025    19.544950258    -3.039236933
 H       -0.198508362    20.012848614    -1.023863763
 H        1.119024163    20.882227482    -0.245437160
 H        1.300251419    22.395018029    -2.350952768
 H       -0.117491311    21.563125500    -3.015007498
 H        2.263394097    -1.029055902     0.052922064
 H        2.259559193     0.554169729     0.871358599
 H        2.276416022     0.468829694    -0.910949968
 H       14.025370104    33.899541991     2.106498246
 H       12.274422380    34.120623789     2.350680387
 H       12.879812245    32.705151568     1.447395932
 H       13.697464640    32.914668030     6.261855318
 C       14.944393421    34.310925769     5.165298003
 C       12.496728498    34.603806950     5.620533512
 H       15.486046518    31.674218277     3.458948898
 C       14.853484653    30.357154507     5.065834658
 C       14.268565087    30.065986549     2.651314475
 H       -0.586974181    27.368357663     6.658367885
 C        0.836056808    28.622669154     7.717198920
 C        0.047647870    28.997782100     5.368826237
 H        2.232850075    25.854619758     8.043431926
 C        0.545863771    24.588733058     7.529944184
 C        2.896351110    24.253797982     6.731599951
 H       -5.287905403    13.804614213    -1.889201285
 C       -4.300147599    12.383712416    -3.206582765
 C       -6.297938075    11.885534409    -1.785679439
 H       -5.718914251    12.060125712     1.180936807
 C       -4.045186313    12.514795564     2.486622026
 C       -5.448386117    14.212137878     1.289045665
 H       -0.156049740    -1.934338715    -1.516758788
 C       -2.155665802    -1.086576170    -1.575294537
 C       -0.186999980    -0.224184300    -2.856457307
 H       -1.776752819    -0.919961143     1.441231617
 C       -0.182857850    -2.379148039     1.623303963
 C       -0.292712918    -0.195730710     2.848948660
 H       15.800171703    33.635325246     5.038550642
 H       15.162408013    34.918959185     6.055461370
 H       14.937251039    35.005097620     4.314511074
 H       11.517301920    34.145114093     5.818501768
 H       12.365994807    35.320501107     4.798961412
 H       12.743444453    35.197277524     6.512472388
 H       15.154762036    31.021229690     5.885843986
 H       15.686718518    29.654376638     4.919233455
 H       14.003479428    29.753610096     5.414087904
 H       14.130111341    30.511320095     1.657731754
 H       13.383064059    29.450693039     2.866471956
 H       15.112878820    29.367729973     2.559644871
 H        0.994397199    27.929943066     8.553458157
 H        0.076308861    29.342427779     8.054930111
 H        1.762428618    29.198732215     7.579362644
 H       -0.349240410    28.581729742     4.432717768
 H        0.919340536    29.617402689     5.112986355
 H       -0.718557355    29.688353764     5.748667448
 H       -0.230440861    25.267860263     7.904645086
 H        0.743015991    23.872163229     8.340373045
 H        0.112632008    24.005975080     6.704911399
 H        3.878488281    24.684424224     6.491737695
 H        2.582464073    23.648224868     5.869015598
 H        3.062424119    23.549458591     7.558689108
 H       -3.381243814    12.962185206    -3.373778093
 H       -4.965520098    12.608975049    -4.051658588
 H       -4.037709618    11.319520236    -3.296722690
 H       -6.914477113    12.135707817    -0.913069359
 H       -6.113737481    10.802022080    -1.769171413
 H       -6.926461301    12.073828363    -2.668272315
 H       -3.627291147    11.498775893     2.523828971
 H       -4.687231108    12.614641227     3.373311534
 H       -3.215147980    13.220900042     2.626242972
 H       -6.114477970    14.454289200     0.451062325
 H       -4.675477019    14.992767574     1.336022592
 H       -6.050931802    14.320864357     2.202095201
 H       -2.541842854    -1.660486583    -0.723442577
 H       -2.454829032    -1.639449825    -2.477665912
 H       -2.696107258    -0.129881151    -1.609973160
 H        0.902137025    -0.132261539    -2.955854298
 H       -0.619141036     0.779544232    -2.978399470
 H       -0.525536631    -0.811371648    -3.722165523
 H       -0.466209147    -2.979247207     0.749007764
 H       -0.642551210    -2.869326757     2.493865976
 H        0.902980594    -2.473839733     1.756448901
 H       -0.643185063     0.845778166     2.883089199
 H        0.786409247    -0.187585782     3.052304278
 H       -0.763965544    -0.706595994     3.700640705

