187   

Si        0.000000000     0.000000000     0.000000000
 C        1.865265632     0.000000000     0.000000000
 C       -0.681487778     1.709617914     0.000000000
 C        0.131056021     2.813167993     0.278027822
 C       -0.399468066     4.103318092     0.274421716
 C       -1.749508238     4.318075748    -0.011405753
 C       -2.563715767     3.211133415    -0.287785876
 C       -2.038708149     1.922495942    -0.277994352
 C       -2.351259474     5.645508369    -0.027751982
 C       -1.700572893     6.794884172     0.222974295
 C       -2.335246479     8.108511276     0.197940869
 C       -1.572606535     9.249787622     0.473245106
 C       -2.152698239    10.518289603     0.456481849
 C       -3.515715436    10.668393414     0.186491878
 C       -4.281251361     9.525677619    -0.082816290
 C       -3.696348858     8.263405889    -0.081829486
Si       -4.380016826    12.296508586     0.140180083
 C       -5.566007127    12.224542471    -1.254667851
 C       -5.297522762    11.466785074    -2.326715770
 C       -6.150127429    11.318185242    -3.503136923
 C       -5.693128181    10.473635356    -4.529593830
 C       -6.441039431    10.280342154    -5.674406721
 C       -7.721235952    10.863375798    -5.790204461
 C       -8.186986288    11.694747412    -4.761637918
 C       -7.390454264    11.936934273    -3.643635429
 N       -8.440261369    10.628351160    -6.990056663
 C       -8.568997713     9.207272740    -7.367898714
 C       -9.690269125    11.385007645    -7.162963560
 C       -9.629014237     8.385073846    -6.605837632
 C       -9.386594281     8.272577469    -5.091467849
 N       -8.082654221     7.678658826    -4.702777883
 C       -7.846578961     7.666752743    -3.306382171
 C       -8.261430851     8.759969336    -2.515275398
 C       -8.040534886     8.768680148    -1.148591786
 C       -7.334858926     7.732129194    -0.518956539
 C       -6.885272435     6.670975332    -1.306999887
 C       -7.125842859     6.635177594    -2.676409169
 C       -7.764097278     6.427597749    -5.410492321
 C       -7.133283703     7.797637997     0.930247211
 C       -6.479475623     6.876000491     1.649546725
Si       -6.209316574     6.926411407     3.460585266
 C       -6.719490785     5.294922104     4.147306402
 C       -7.696227242     4.540607240     3.487342220
 C       -8.096035590     3.303762253     3.990744736
 C       -7.536076098     2.796834257     5.166880377
 C       -6.562265964     3.556222228     5.828687870
 C       -6.158924184     4.791127203     5.326792338
 C       -7.923795680     1.507874198     5.730262361
 C       -8.841889832     0.684621967     5.196258062
 C       -9.229973131    -0.604357279     5.759171231
 C       -8.669668613    -1.114024056     6.933301038
 C       -9.070457263    -2.351736497     7.436309211
 C      -10.047696060    -3.104484530     6.777947911
 C      -10.612339614    -2.595002985     5.600669573
 C      -10.206128707    -1.362096581     5.098044308
Si      -10.588494836    -4.739549040     7.427529878
 C       -9.950894761    -5.037655194     9.155199306
 C      -12.491464425    -4.784752393     7.411250064
 C       -9.939233269    -6.123193567     6.292747626
 C       -4.391694235     7.257709778     3.901699059
 C       -7.263783449     8.295201885     4.258851408
 C       -5.334755378    12.543591575     1.764972399
 C       -3.152561668    13.724541970    -0.092029408
 C       -0.658337349    -0.905867959    -1.539316429
 C       -0.614608657    -0.917273424     1.551013444
 H        1.195509495     2.706774086     0.503663513
 H        0.252753429     4.945839755     0.496026577
 H       -3.620058965     3.357263761    -0.507639170
 H       -2.721782640     1.096649123    -0.495958642
 H       -3.419212659     5.655891519    -0.273395997
 H       -0.635559041     6.797798738     0.464999492
 H       -0.513036031     9.150589565     0.697136418
 H       -1.508010166    11.373980640     0.668847016
 H       -5.357807172     9.573958526    -0.301356229
 H       -4.320874124     7.396005925    -0.298892825
 H       -6.474751380    12.830745395    -1.175999217
 H       -4.377078071    10.862405640    -2.405449737
 H       -4.729162845     9.972326732    -4.428752154
 H       -6.052254907     9.658084990    -6.477135895
 H       -9.162536661    12.163666610    -4.823246349
 H       -7.757761936    12.603814481    -2.864159339
 H      -10.092044059    11.194652424    -8.172556880
 H       -9.466408333    12.465709371    -7.103182741
 H      -10.471747703    11.144471364    -6.425541975
 H       -7.897036489     6.560211575    -6.496035816
 H       -8.373831667     5.569394277    -5.086480907
 H       -6.694542991     6.189059948    -5.260130967
 H       -8.749042765     9.616576367    -2.977502090
 H       -8.397932664     9.614883995    -0.560337731
 H       -6.335826933     5.847396241    -0.848486901
 H       -6.756195513     5.787921814    -3.244610402
 H       -7.576058390     8.695824000     1.382200946
 H       -6.037224337     5.987533443     1.169409836
 H       -8.171037898     4.887447809     2.563467866
 H       -8.853975680     2.733646522     3.457259850
 H       -6.112991525     3.178814764     6.745114700
 H       -5.393367143     5.337463006     5.884579271
 H       -7.402073571     1.236304557     6.652716783
 H       -9.363444591     0.956468161     4.273942407
 H       -7.910206198    -0.545761002     7.467338503
 H       -8.594718291    -2.698397125     8.357855219
 H      -11.381233336    -3.138337003     5.044268245
 H      -10.655187595    -0.983649060     4.181787616
 H       -8.801287493     9.182029742    -8.457936321
 H       -7.574329548     8.716665806    -7.250495410
 H      -10.629060598     8.838607080    -6.757428610
 H       -9.695182906     7.379040536    -7.061917206
 H       -9.420988489     9.306353007    -4.664946757
 H      -10.227838127     7.703073102    -4.634057579
 H        2.263057711    -1.029785444    -0.038949485
 H        2.274661451     0.480478931     0.905853658
 H        2.261145330     0.542072078    -0.877902543
 H      -10.311819965    -6.003601869     9.551313957
 H      -10.294411457    -4.246714442     9.846456107
 H       -8.847410992    -5.057081177     9.186186444
 H      -12.794607367    -4.637641451     6.333801257
 C      -13.078209419    -6.125578123     7.887126695
 C      -13.114803747    -3.643383317     8.235032452
 H      -10.248181197    -7.090158468     6.785527752
 C      -10.541911586    -6.097503527     4.876740628
 C       -8.403984578    -6.116793354     6.174656136
 H       -4.341023292     7.186202005     5.028323889
 C       -3.437903551     6.203138690     3.318098290
 C       -3.904419482     8.659350920     3.501460199
 H       -6.990571968     9.249453992     3.720416328
 C       -8.774514617     8.059637062     4.080101010
 C       -6.969429722     8.495837938     5.755994213
 H       -5.841294715    13.547480048     1.680761710
 C       -6.422429291    11.473638752     1.970940586
 C       -4.420494837    12.569854346     3.002557857
 H       -2.437360126    13.666126364     0.779012900
 C       -2.336740442    13.591242444    -1.391018215
 C       -3.819606793    15.111764176    -0.064781098
 H       -1.782919798    -0.906383589    -1.440260201
 C       -0.301986411    -0.178684702    -2.848657076
 C       -0.193894431    -2.369959597    -1.636228082
 H       -0.120668579    -1.931104651     1.521532623
 C       -0.191546941    -0.216679989     2.855415354
 C       -2.138648024    -1.129425970     1.579371897
 H      -12.735320615    -6.984507602     7.295960552
 H      -14.174142096    -6.108554488     7.796859942
 H      -12.861133524    -6.337746066     8.942399532
 H      -12.783316109    -2.645500766     7.913531224
 H      -12.910822840    -3.728965416     9.310550255
 H      -14.208623142    -3.653097310     8.125773880
 H      -11.636535317    -6.173478142     4.866885927
 H      -10.170465722    -6.954097319     4.295526643
 H      -10.260089168    -5.199025900     4.309892078
 H       -7.891337638    -6.216679802     7.140036998
 H       -8.017305610    -5.211342332     5.685017917
 H       -8.069834143    -6.965117923     5.560359883
 H       -3.698289298     5.171493181     3.590153832
 H       -2.416442785     6.369762600     3.688400995
 H       -3.371775414     6.250936049     2.220925668
 H       -4.494753330     9.472906590     3.940368573
 H       -3.887896724     8.811914967     2.410235895
 H       -2.869279951     8.809734365     3.838835282
 H       -9.081696501     7.948324728     3.031448293
 H       -9.340450516     8.912361478     4.479852080
 H       -9.133024582     7.172549147     4.621753952
 H       -5.929273989     8.781339220     5.960295371
 H       -7.198526302     7.607311379     6.360611658
 H       -7.594068387     9.306739702     6.157149448
 H       -7.161827061    11.444182575     1.159276370
 H       -6.982519723    11.676216268     2.894253007
 H       -6.002063928    10.461556119     2.076721798
 H       -3.667473601    13.367341512     2.971348139
 H       -3.891559378    11.618894649     3.163539285
 H       -5.017045015    12.747541048     3.908723542
 H       -1.783269963    12.644937539    -1.465349086
 H       -1.587166257    14.392478102    -1.450929187
 H       -2.957241832    13.680653405    -2.294828845
 H       -4.355725731    15.319751352     0.869720623
 H       -4.522066110    15.264084074    -0.896009199
 H       -3.056378927    15.897528398    -0.160950746
 H       -0.653244348     0.862740263    -2.875578863
 H       -0.775394792    -0.684516330    -3.702011111
 H        0.776531279    -0.169151025    -3.054531299
 H       -0.477236880    -2.974287086    -0.764704828
 H        0.891349716    -2.466948181    -1.772089367
 H       -0.656820333    -2.853470417    -2.508668375
 H        0.894624003    -0.096038761     2.954543587
 H       -0.515420191    -0.809550480     3.722938306
 H       -0.649427691     0.776221930     2.974063312
 H       -2.517819332    -1.691919672     0.717165690
 H       -2.699904484    -0.185873352     1.641130723
 H       -2.420337037    -1.709349466     2.470695259

