187   

Si        0.000000000     0.000000000     0.000000000
 C        1.865176205     0.000000000     0.000000000
 C       -0.668841455     1.715503810     0.000000000
 C        0.095386038     2.777269937     0.495731324
 C       -0.410928540     4.076572769     0.495839980
 C       -1.692810320     4.344184460     0.007840727
 C       -2.459487987     3.278692000    -0.482096648
 C       -1.956735758     1.980220265    -0.483597968
 C       -2.262826065     5.687337543    -0.011364579
 C       -1.633724284     6.790741274     0.427631997
 C       -2.201285864     8.134819044     0.409593156
 C       -1.430130084     9.197112377     0.900817456
 C       -1.928593297    10.496901524     0.904258460
 C       -3.215070129    10.764546996     0.418645950
 C       -3.986160814     9.706654198    -0.073310568
 C       -3.481571233     8.406501923    -0.079914458
Si       -3.872909266    12.482764538     0.423642233
 C       -5.681619509    12.462034484     0.163919579
 C       -6.351932160    13.198219384    -0.732098903
 C       -7.803970920    13.154159982    -0.911127656
 C       -8.391254280    13.975036024    -1.885255542
 C       -9.759809913    13.971994178    -2.095367548
 C      -10.593358941    13.096375553    -1.365208932
 C      -10.004570821    12.269804545    -0.390014447
 C       -8.635743599    12.321173331    -0.158495766
 N      -11.980708098    13.109366436    -1.593993162
 C      -12.421698283    13.327111912    -2.983409347
 C      -12.786649035    12.099690634    -0.888639054
 C      -11.837072432    12.310631859    -3.985741135
 C      -12.741611331    12.138328866    -5.219578078
 N      -13.620848260    10.947031333    -5.173862513
 C      -14.463614089    10.906765463    -4.028959722
 C      -15.419889466    11.932861650    -3.892091197
 C      -16.270288719    11.949735961    -2.799176319
 C      -16.219523620    10.935588726    -1.829581293
 C      -15.286486899     9.908405101    -1.983459168
 C      -14.420967476     9.882744869    -3.072463957
 C      -12.891709634     9.701328723    -5.471700180
 C      -17.141635198    11.002207371    -0.693859480
 C      -17.186141823    10.095061923     0.290814338
Si      -18.338091219    10.178282551     1.709619553
 C      -19.915695247    11.012224403     1.267113540
 C      -20.426616603    10.888285732    -0.031624537
 C      -21.619884345    11.513390017    -0.382961140
 C      -22.338693104    12.265817222     0.555434172
 C      -21.831001998    12.380040619     1.852549522
 C      -20.633946575    11.758500280     2.206732008
 C      -23.583959016    12.901750985     0.138578154
 C      -24.365511983    13.651252067     0.934357002
 C      -25.610638599    14.286348631     0.515235705
 C      -26.116223299    14.170732123    -0.782132432
 C      -27.311152253    14.794798500    -1.140373918
 C      -28.030834899    15.544141563    -0.204427238
 C      -27.526324593    15.660702291     1.098067660
 C      -26.330836807    15.041113993     1.451005641
Si      -29.609365614    16.373945244    -0.661031626
 C      -30.246410092    15.777854998    -2.309832228
 C      -30.886780099    16.018177291     0.704738102
 C      -29.333413535    18.254896182    -0.757161579
 C      -18.720006002     8.404634576     2.279010668
 C      -17.474172494    11.107678279     3.127208721
 C       -3.510109494    13.281311960     2.112568979
 C       -3.001633223    13.493226419    -0.932000052
 C       -0.649722418    -0.917861636    -1.536189937
 C       -0.630574355    -0.908049596     1.549107445
 H        1.104863507     2.630681249     0.889902914
 H        0.205928143     4.885573078     0.883095935
 H       -3.460741583     3.464698864    -0.865989549
 H       -2.602120839     1.189924086    -0.876676794
 H       -3.275130677     5.749262941    -0.421060094
 H       -0.621180165     6.727708810     0.837283220
 H       -0.429990490     9.006474553     1.284932009
 H       -1.282300141    11.285232374     1.300107755
 H       -4.995790951     9.859429127    -0.468524514
 H       -4.099159876     7.600050303    -0.470632832
 H       -6.211822523    11.773532429     0.842736038
 H       -5.855099380    13.899527464    -1.415525083
 H       -7.763397859    14.639174373    -2.479859743
 H      -10.189418838    14.649013237    -2.827980811
 H      -10.609785463    11.585894997     0.196454924
 H       -8.207468599    11.681988551     0.615376261
 H      -13.858751948    12.248254730    -1.118530828
 H      -12.672976461    12.236490562     0.201380521
 H      -12.528930953    11.062187067    -1.155162390
 H      -12.448110829     9.786117040    -6.479619395
 H      -13.603779141     8.858215303    -5.505446298
 H      -12.088199371     9.461217363    -4.758137131
 H      -15.492545064    12.703783932    -4.656569729
 H      -16.999045912    12.755404931    -2.699547283
 H      -15.231915235     9.106000996    -1.246559481
 H      -13.704805266     9.071103152    -3.159933234
 H      -17.809353961    11.874922375    -0.728932695
 H      -16.501357919     9.233382865     0.307383042
 H      -19.911914527    10.307877057    -0.804932054
 H      -21.998108429    11.411333412    -1.398512254
 H      -22.370145768    12.957765448     2.601022868
 H      -20.287982845    11.883484434     3.236415597
 H      -23.859281554    12.726627563    -0.905722813
 H      -24.091320758    13.826820251     1.978709023
 H      -25.577795984    13.589605810    -1.528570286
 H      -27.655360632    14.668909201    -2.170665697
 H      -28.046377219    16.232600630     1.871889067
 H      -25.954404071    15.144229637     2.466982795
 H      -13.536230459    13.296449949    -3.000482345
 H      -12.147069138    14.364770749    -3.278957631
 H      -10.823792930    12.630041597    -4.292402513
 H      -11.685848659    11.335076988    -3.484448896
 H      -13.390142434    13.031597051    -5.362678382
 H      -12.122654820    12.068513722    -6.142007884
 H        2.263434520    -1.028590499    -0.060008069
 H        2.277113411     0.463175944     0.913425694
 H        2.258710464     0.560094925    -0.867970002
 H      -31.215400775    16.248071328    -2.555542150
 H      -30.401582044    14.683640507    -2.302602782
 H      -29.545356832    16.013823324    -3.129490247
 H      -30.450455459    16.444168800     1.654787050
 C      -32.247010879    16.697060849     0.465113225
 C      -31.109816282    14.510855736     0.923909240
 H      -30.318318139    18.689761422    -1.095015468
 C      -28.968688660    18.896141159     0.593718237
 C      -28.260586747    18.641134548    -1.791885253
 H      -17.727764660     7.942354814     2.551762653
 C      -19.629223729     8.351915058     3.518943198
 C      -19.350866518     7.557615261     1.159350757
 H      -18.190831438    11.086168801     3.998254626
 C      -16.160797440    10.442540192     3.576291063
 C      -17.192135293    12.578713456     2.772972529
 H       -2.386527797    13.296325702     2.214050433
 C       -4.018034553    14.730081909     2.214737736
 C       -4.081525690    12.464094510     3.284955739
 H       -3.520503998    14.495411768    -0.950248148
 C       -1.507619085    13.738284826    -0.655201873
 C       -3.146178837    12.851383562    -2.324202538
 H       -1.774884299    -0.919132047    -1.444354150
 C       -0.284178467    -0.202430538    -2.849406676
 C       -0.184753608    -2.382933486    -1.617951240
 H       -0.163734844    -1.934513443     1.516038354
 C       -0.189391465    -0.224784768     2.856425956
 C       -2.160192903    -1.079078934     1.572938166
 H      -32.177639020    17.788398863     0.369909176
 H      -32.917128374    16.505157435     1.315818139
 H      -32.765195226    16.315876539    -0.424764432
 H      -30.184832941    13.964913638     1.158782508
 H      -31.575966800    14.015810346     0.061748171
 H      -31.785854358    14.349554903     1.775705539
 H      -29.726160060    18.735795542     1.371305821
 H      -28.874581003    19.985886441     0.478344830
 H      -28.002916439    18.546445263     0.984941714
 H      -28.488008851    18.292741443    -2.807539467
 H      -27.259956247    18.268980374    -1.528701703
 H      -28.174660295    19.735455817    -1.854990726
 H      -19.203175128     8.858538265     4.394344961
 H      -19.794539764     7.307090076     3.819937186
 H      -20.626401129     8.778438877     3.337571142
 H      -18.732500928     7.499439727     0.253357004
 H      -20.345507876     7.918639855     0.859636633
 H      -19.491725817     6.522912875     1.503110122
 H      -16.290185518     9.407694717     3.917701753
 H      -15.733546031    10.993251543     4.427097355
 H      -15.390745288    10.444516995     2.792120788
 H      -18.094476879    13.142659419     2.498431825
 H      -16.470407797    12.690109922     1.950514141
 H      -16.756639226    13.098738300     3.637993956
 H       -3.586028320    15.397455184     1.457995585
 H       -3.747433658    15.156232425     3.191311965
 H       -5.112461498    14.805861084     2.138928022
 H       -3.728882565    11.423212971     3.303060971
 H       -5.179949405    12.443348945     3.297136312
 H       -3.771018734    12.909266241     4.240912606
 H       -1.319901265    14.274118183     0.283868198
 H       -1.075541541    14.359420369    -1.453351286
 H       -0.918040040    12.810990550    -0.638705947
 H       -4.189271906    12.680205454    -2.623621135
 H       -2.620933438    11.888705092    -2.405367079
 H       -2.708069472    13.506566058    -3.089977003
 H       -0.630325155     0.840396577    -2.887274295
 H       -0.754614711    -0.713432009    -3.701394577
 H        0.795610446    -0.198934748    -3.049506881
 H       -0.475034109    -2.980735513    -0.744340115
 H        0.901495780    -2.481371956    -1.744804512
 H       -0.641052750    -2.872914385    -2.490384383
 H        0.900053788    -0.138270066     2.957305649
 H       -0.532011338    -0.810472877     3.721585794
 H       -0.617040343     0.780927072     2.977889633
 H       -2.547898828    -1.649595837     0.719512243
 H       -2.696817637    -0.120233289     1.608629123
 H       -2.462533766    -1.632604379     2.473821709

