187   

Si        0.000000000     0.000000000     0.000000000
 C        1.865367270     0.000000000     0.000000000
 C       -0.674483779     1.713118467     0.000000000
 C        0.141230435     2.808502615     0.300899001
 C       -0.379085900     4.102537498     0.298285018
 C       -1.725151371     4.330987366     0.001147866
 C       -2.542156496     3.232120042    -0.296593594
 C       -2.025306648     1.939472723    -0.296801106
 C       -2.311735647     5.667095355    -0.013224757
 C       -1.638522578     6.799648129     0.251451034
 C       -2.221375373     8.137148336     0.238090674
 C       -3.566844762     8.370898080    -0.058412104
 C       -4.081788133     9.667012622    -0.059561545
 C       -3.262572727    10.757152151     0.250199405
 C       -1.913224477    10.525945431     0.549641726
 C       -1.399889615     9.232076646     0.538153482
Si       -3.912242196    12.477487026     0.257064117
 C       -3.091774460    13.508154536     1.526238603
 C       -2.604844260    13.028350611     2.678441210
 C       -1.947275805    13.848050098     3.697943767
 C       -1.479148525    13.223742396     4.865247409
 C       -0.850437538    13.952045719     5.860268184
 C       -0.698499099    15.348875413     5.729642768
 C       -1.161042996    15.975328831     4.561894853
 C       -1.758193946    15.223626648     3.555004232
 N       -0.048726007    16.044468774     6.775356222
 C       -0.609662217    15.823545723     8.128632748
 C        0.302640670    17.449189744     6.511541996
 C       -2.135316753    15.648842307     8.204306619
 C       -2.905579272    16.876408441     7.686108642
 N       -4.314000473    16.585408841     7.367568035
 C       -5.152630938    16.190565650     8.422877591
 C       -4.894663718    16.622841713     9.741745237
 C       -5.722098922    16.233238052    10.782800891
 C       -6.859686445    15.447461602    10.552672070
 C       -7.132591096    15.048136791     9.241037713
 C       -6.305554443    15.414713339     8.188441624
 C       -4.477741648    15.874783491     6.087095136
 C       -7.699856670    15.063667142    11.688163667
 C       -8.806796109    14.316926587    11.582901893
Si       -9.893343398    13.806846074    12.960113363
 C      -11.643394565    14.191311494    12.543010301
 C      -11.939280840    15.186799751    11.603542543
 C      -13.262019271    15.482370260    11.283632974
 C      -14.318868180    14.800718360    11.901001018
 C      -14.019576353    13.812337930    12.843176565
 C      -12.696533365    13.510318538    13.162682305
 C      -15.687647234    15.146473842    11.532008378
 C      -16.787937978    14.568565005    12.043151217
 C      -18.156338968    14.915027130    11.673503421
 C      -18.455815693    15.902851915    10.731846537
 C      -19.779147920    16.202123809    10.408142283
 C      -20.833418242    15.513094267    11.015526970
 C      -20.535705857    14.520681368    11.959391301
 C      -19.214172047    14.228141684    12.284523848
Si      -22.585452403    15.895531688    10.599817935
 C      -22.711692990    16.974098116     9.083040570
 C      -23.501866074    14.251331619    10.316547570
 C      -23.402641922    16.800836313    12.061446990
 C       -9.697406410    11.931615537    13.220044375
 C       -9.431466837    14.697727374    14.575367235
 C       -3.600020675    13.257443753    -1.449045629
 C       -5.783911377    12.476865391     0.598460501
 C       -0.656669614    -0.901551308    -1.542607278
 C       -0.616237637    -0.922425188     1.546523248
 H        1.201773015     2.693120412     0.541255054
 H        0.278050943     4.938092490     0.532749418
 H       -3.593512901     3.387839739    -0.530866332
 H       -2.710496902     1.121814794    -0.537631460
 H       -3.376398469     5.697098064    -0.262331958
 H       -0.573521234     6.768033869     0.500261807
 H       -4.226444621     7.538138208    -0.294840706
 H       -5.140138073     9.787241602    -0.306105408
 H       -1.225723170    11.342090540     0.797044947
 H       -0.348257648     9.071952196     0.769076719
 H       -3.036704662    14.579819306     1.283058814
 H       -2.655838564    11.963268594     2.947230924
 H       -1.602544076    12.146438730     4.987223165
 H       -0.462578556    13.450174891     6.743830550
 H       -1.056393216    17.047135972     4.426979664
 H       -2.094370086    15.728569958     2.648406082
 H        0.984568691    17.800967057     7.306111832
 H       -0.557537590    18.134479538     6.461133929
 H        0.865023884    17.513830712     5.562477849
 H       -3.702135822    16.191372076     5.366860411
 H       -5.455607287    16.143315709     5.648551315
 H       -4.413021627    14.777960188     6.182145252
 H       -4.040973347    17.258931326     9.953956005
 H       -5.488212726    16.559044564    11.796768577
 H       -8.013072014    14.437821185     9.032040795
 H       -6.557713707    15.086039912     7.185017118
 H       -7.334569109    15.453794556    12.647030589
 H       -9.142344833    13.935163980    10.603934940
 H      -11.153836658    15.754312443    11.093106718
 H      -13.473956059    16.254662890    10.546557331
 H      -14.822191064    13.268083032    13.336973241
 H      -12.523783573    12.726772543    13.905374191
 H      -15.772638720    15.938345657    10.781855657
 H      -16.703356888    13.776567860    12.792915783
 H      -17.653477121    16.451008905    10.241258250
 H      -19.950567532    16.985743170     9.664971274
 H      -21.318501133    13.948595793    12.465377263
 H      -19.002973872    13.454839240    13.020645913
 H       -0.118245384    14.901364825     8.524846717
 H       -0.290819227    16.652636517     8.796837775
 H       -2.443057171    14.750214188     7.631268874
 H       -2.430684525    15.432537744     9.249711653
 H       -2.868859559    17.706539293     8.425947020
 H       -2.428142582    17.275816783     6.761632617
 H        2.263320800    -1.029338373    -0.049926380
 H        2.275328036     0.470831165     0.910613156
 H        2.261035212     0.551064082    -0.872530020
 H      -23.766781790    17.163605373     8.816311941
 H      -22.231290012    16.491675032     8.212516153
 H      -22.226373128    17.953928841     9.236309116
 H      -23.418573224    13.679883287    11.286554050
 C      -24.997786484    14.428390050    10.001082304
 C      -22.853578176    13.398285510     9.211162863
 H      -24.442780567    17.064706265    11.712609464
 C      -23.530528503    15.938696504    13.329992914
 C      -22.675245704    18.108286112    12.425534434
 H      -10.358669347    11.667162372    14.095067266
 C      -10.170200601    11.115596116    12.003723719
 C       -8.256561893    11.520746302    13.570978919
 H       -8.329485821    14.509921594    14.729325923
 C       -9.652815921    16.219089644    14.490301377
 C      -10.182638845    14.157699864    15.805530538
 H       -4.020304438    14.303051891    -1.396930642
 C       -2.099552432    13.360938874    -1.776461292
 C       -4.311350278    12.512315555    -2.591683475
 H       -6.253480631    11.871874077    -0.229979206
 C       -6.131824847    11.806384639     1.939612821
 C       -6.406111903    13.884381982     0.569013012
 H       -1.781436038    -0.900550348    -1.446084956
 C       -0.295923782    -0.172391958    -2.849512531
 C       -0.194245806    -2.366177385    -1.641300953
 H       -0.123638388    -1.937055654     1.513104108
 C       -0.193269624    -0.229452396     2.854869758
 C       -2.140656562    -1.133729970     1.571246845
 H      -25.546043491    14.970199046    10.782587226
 H      -25.481403515    13.444650740     9.912604013
 H      -25.176346969    14.944211915     9.048302824
 H      -21.791816970    13.181516596     9.397220551
 H      -22.928063173    13.856104096     8.215908346
 H      -23.357896753    12.423946125     9.142026678
 H      -24.107223444    15.018049914    13.175576842
 H      -24.057180377    16.501707423    14.114442780
 H      -22.556435733    15.660163392    13.756215884
 H      -22.611184768    18.819163300    11.591721552
 H      -21.654374726    17.939401228    12.797660000
 H      -23.214192100    18.627525738    13.230968509
 H      -11.210825429    11.323747520    11.717465259
 H      -10.123416654    10.040849970    12.229629152
 H       -9.543919995    11.270846831    11.114416497
 H       -7.877445412    11.998793708    14.483313371
 H       -7.542411274    11.733781370    12.762460500
 H       -8.206365581    10.436936765    13.747788163
 H       -9.120378655    16.695313460    13.655551769
 H       -9.289827258    16.705525159    15.406432977
 H      -10.714764741    16.489512000    14.398088327
 H       -9.994018186    13.094142558    15.999059097
 H      -11.270566125    14.300302091    15.739641715
 H       -9.859023160    14.695130465    16.708797402
 H       -1.528063981    13.931833648    -1.032040155
 H       -1.957843429    13.877509877    -2.736456124
 H       -1.617217111    12.378405219    -1.883333071
 H       -5.402668842    12.482134259    -2.479509403
 H       -3.958683567    11.478002955    -2.713940951
 H       -4.115491511    13.016542414    -3.549235348
 H       -5.773702679    10.770231403     2.016015988
 H       -7.222461612    11.764642282     2.069312825
 H       -5.738201897    12.356103420     2.807083236
 H       -6.267183072    14.402562392    -0.388372594
 H       -6.022034250    14.538319045     1.364426795
 H       -7.492684499    13.817413610     0.724948471
 H       -0.645354962     0.869742666    -2.875593112
 H       -0.768252360    -0.675748082    -3.705077475
 H        0.783084866    -0.164364523    -3.053034450
 H       -0.481399536    -2.972394232    -0.772446712
 H        0.891281555    -2.464791685    -1.774082022
 H       -0.655073329    -2.846746246    -2.516632948
 H        0.893461239    -0.113422359     2.955967989
 H       -0.520019057    -0.825242269     3.719245021
 H       -0.647080697     0.764536685     2.977604053
 H       -2.516319649    -1.700196505     0.709811766
 H       -2.701532253    -0.190019537     1.625814881
 H       -2.425160957    -1.709949042     2.463817182

