187   

Si        0.000000000     0.000000000     0.000000000
 C        1.865741049     0.000000000     0.000000000
 C       -0.670028867     1.714854394     0.000000000
 C        0.167659108     2.816729513     0.199274183
 C       -0.350883650     4.111466720     0.197284555
 C       -1.717852442     4.332676802     0.012494603
 C       -2.556921901     3.227639976    -0.183884940
 C       -2.040421974     1.935041557    -0.194889358
 C       -2.303491877     5.668611671     0.003141287
 C       -1.610476678     6.808406359     0.167245694
 C       -2.196677268     8.144264833     0.157807114
 C       -1.354606273     9.248939591     0.341442539
 C       -1.868048749    10.543070346     0.340154692
 C       -3.239492565    10.761001590     0.160013642
 C       -4.082738644     9.660082229    -0.022475919
 C       -3.564665096     8.365990809    -0.024809605
Si       -3.923166797    12.468783256     0.157457644
 C       -5.722281460    12.406613929     0.469974398
 C       -6.649608148    13.026828395    -0.270721758
 C       -8.088484064    12.969613608    -0.010420200
 C       -8.949580997    13.670859646    -0.871486696
 C      -10.318493680    13.654212280    -0.676082055
 C      -10.877329054    12.878086896     0.361433225
 C      -10.021558202    12.174717561     1.221335692
 C       -8.641866321    12.246763874     1.046700998
 N      -12.285959918    12.902775082     0.510447127
 C      -13.057309267    12.498701572    -0.679798734
 C      -12.816997557    12.355511794     1.768270279
 C      -13.213405252    10.980986162    -0.903438229
 C      -11.928208244    10.301345785    -1.407892296
 N      -11.425096580    10.884068380    -2.675248776
 C      -10.100293881    10.512028871    -3.013913694
 C       -9.102241315    10.527224912    -2.018537943
 C       -7.798008073    10.169681150    -2.315042757
 C       -7.420327861     9.834815867    -3.623766170
 C       -8.401537250     9.851159909    -4.616923312
 C       -9.719551699    10.188501265    -4.327851432
 C      -12.406660518    10.812377398    -3.771229007
 C       -6.028654191     9.463064056    -3.888540063
 C       -5.561202932     9.126255805    -5.097848325
Si       -3.839719569     8.653590612    -5.493102037
 C       -3.829383467     7.084115551    -6.455666785
 C       -4.970944660     6.274943211    -6.504523680
 C       -4.963007365     5.087843193    -7.232623007
 C       -3.812931817     4.674242756    -7.917142457
 C       -2.672203285     5.480425089    -7.859643444
 C       -2.678336118     6.671930756    -7.135957968
 C       -3.855096804     3.422637950    -8.665828847
 C       -2.828374856     2.914149512    -9.368149239
 C       -2.873971751     1.661986435   -10.115867732
 C       -4.015774325     0.858541674   -10.171284336
 C       -4.016219300    -0.331696579   -10.898386956
 C       -2.873718953    -0.741668118   -11.592547761
 C       -1.727149947     0.062670858   -11.539296006
 C       -1.728205333     1.247313402   -10.808203422
Si       -2.858316129    -2.309479308   -12.556514083
 C       -4.579407412    -2.992582417   -12.783486811
 C       -2.060690049    -1.961545251   -14.249597542
 C       -1.802930207    -3.604976563   -11.644517909
 C       -3.024003261    10.015280966    -6.539853135
 C       -2.848359540     8.389689211    -3.892152384
 C       -3.081053369    13.508747840     1.505202261
 C       -3.574925969    13.246725149    -1.543274635
 C       -0.663596441    -0.887009790    -1.547809109
 C       -0.607821679    -0.931984417     1.543937390
 H        1.244189045     2.706115287     0.355252825
 H        0.323931412     4.952365339     0.345982613
 H       -3.624285243     3.378789344    -0.335230802
 H       -2.741280719     1.112202149    -0.362047481
 H       -3.387353123     5.691468949    -0.147975852
 H       -0.528022542     6.784089129     0.321856253
 H       -0.286988439     9.096996604     0.486237278
 H       -1.163658228    11.366137505     0.487056129
 H       -5.162213846     9.773421378    -0.167429764
 H       -4.240436565     7.524364730    -0.169280909
 H       -6.000742282    11.812338846     1.354594113
 H       -6.399256534    13.633924792    -1.152355709
 H       -8.535484263    14.242192918    -1.703121303
 H      -10.970724136    14.225638542    -1.333497449
 H      -10.420301423    11.572878959     2.030941715
 H       -7.993438233    11.709471183     1.739467422
 H      -13.900320856    12.558281405     1.820353365
 H      -12.346704976    12.884985499     2.616784332
 H      -12.658195373    11.273531618     1.898104146
 H      -13.365500119    11.245298672    -3.441690189
 H      -12.591664959     9.789190957    -4.134621328
 H      -12.058695559    11.437626683    -4.613596167
 H       -9.353095630    10.829511596    -1.001595365
 H       -7.051564763    10.177233617    -1.518223232
 H       -8.139451453     9.595801447    -5.644612649
 H      -10.445771295    10.177652059    -5.133494238
 H       -5.397815380     9.480736067    -2.988470524
 H       -6.221847992     9.128374820    -5.980480150
 H       -5.894751724     6.543389782    -5.981931478
 H       -5.861169759     4.474384634    -7.264382299
 H       -1.765484353     5.180677777    -8.381329755
 H       -1.756685421     7.260372617    -7.126136802
 H       -4.813318714     2.896433925    -8.621865209
 H       -1.869860505     3.439254029    -9.412263695
 H       -4.919636903     1.156899972    -9.643225144
 H       -4.939225726    -0.917877786   -10.903368981
 H       -0.805472298    -0.206727522   -12.062674223
 H       -0.827686482     1.857784566   -10.777310389
 H      -14.065213821    12.964052501    -0.582332484
 H      -12.586408048    12.951615814    -1.585519604
 H      -13.526470385    10.485505328     0.035408620
 H      -14.044506887    10.807818069    -1.612950204
 H      -11.141306796    10.424115654    -0.625067887
 H      -12.106530536     9.207934697    -1.516235395
 H        2.263941101    -1.029800647    -0.034567689
 H        2.274326824     0.484230034     0.904123723
 H        2.261926059     0.537650096    -0.880563501
 H       -4.565359286    -3.910626197   -13.397596523
 H       -5.231378146    -2.261404167   -13.295056063
 H       -5.049944835    -3.246022637   -11.817454209
 H       -1.013909126    -1.600376512   -14.029953237
 C       -1.950688056    -3.208805326   -15.144486392
 C       -2.788696376    -0.849439781   -15.026141313
 H       -1.888368012    -4.550703654   -12.253934373
 C       -0.312468530    -3.232663354   -11.549847994
 C       -2.327676657    -3.901004811   -10.227491307
 H       -1.970830855     9.659551569    -6.736324442
 C       -3.720879463    10.207571741    -7.899084023
 C       -2.939886994    11.374069056    -5.824318816
 H       -3.096229840     9.259683350    -3.215477671
 C       -3.273395361     7.091472524    -3.182635237
 C       -1.322682274     8.370083574    -4.086322835
 H       -1.985394853    13.540472386     1.237176261
 C       -3.598536132    14.956875620     1.559853328
 C       -3.208791694    12.876171473     2.902610998
 H       -4.052214870    14.268765469    -1.519724208
 C       -2.074783969    13.428235234    -1.836050130
 C       -4.206761360    12.444438720    -2.694141933
 H       -1.787950107    -0.886162276    -1.444641515
 C       -0.311077414    -0.144846584    -2.849472922
 C       -0.201259843    -2.350344298    -1.662800817
 H       -0.099594771    -1.939007259     1.509090588
 C       -0.195958452    -0.234245262     2.853448105
 C       -2.128421830    -1.168800274     1.569856501
 H       -1.380332925    -4.025763569   -14.683932150
 H       -1.426171985    -2.955988409   -16.077492628
 H       -2.928612802    -3.609840656   -15.441991772
 H       -2.854855166     0.096259823   -14.469056488
 H       -3.807785098    -1.129621814   -15.323714380
 H       -2.246931776    -0.621121638   -15.955044977
 H        0.162382719    -3.082033983   -12.527563995
 H        0.246172199    -4.043478810   -11.059864380
 H       -0.135623234    -2.331640886   -10.945595262
 H       -3.367641095    -4.251431784   -10.211172173
 H       -2.258986524    -3.032116942    -9.556998887
 H       -1.728294072    -4.696677603    -9.762349437
 H       -3.774597288     9.285822544    -8.495249251
 H       -3.164507269    10.933394947    -8.508675784
 H       -4.741670456    10.602214188    -7.804717580
 H       -2.395211382    11.330687724    -4.871339200
 H       -3.929166400    11.810508293    -5.625717369
 H       -2.403267128    12.098694142    -6.452515784
 H       -4.338120432     7.067174678    -2.915828626
 H       -2.712122992     6.980708364    -2.241824279
 H       -3.056214988     6.187600274    -3.769495020
 H       -0.926127665     9.295202767    -4.521729578
 H       -0.980146922     7.528805329    -4.703610454
 H       -0.826984726     8.253495141    -3.110319336
 H       -3.458551955    15.504910165     0.619157193
 H       -3.053629275    15.522832692     2.329024781
 H       -4.663029514    15.021497786     1.827525062
 H       -2.818072247    11.850211138     2.954070766
 H       -4.243886266    12.856603942     3.270444239
 H       -2.632894146    13.460225594     3.634748268
 H       -1.561475522    14.067999398    -1.107623482
 H       -1.939584326    13.911681698    -2.814613316
 H       -1.530517860    12.474557416    -1.888419670
 H       -5.287111567    12.271979749    -2.582062996
 H       -3.734792053    11.460839654    -2.833203083
 H       -4.083330819    12.985093887    -3.643245988
 H       -0.664008147     0.896709398    -2.864669437
 H       -0.787494100    -0.640865336    -3.707545051
 H        0.766397421    -0.132024058    -3.059389562
 H       -0.482353474    -2.964964845    -0.798091131
 H        0.883377110    -2.446938213    -1.803735513
 H       -0.667538677    -2.822611841    -2.539915285
 H        0.888685181    -0.099713660     2.954309885
 H       -0.512208338    -0.836767588     3.716948314
 H       -0.666085218     0.751898536     2.977728215
 H       -2.498373321    -1.725274022     0.699440425
 H       -2.703958237    -0.235568527     1.644440749
 H       -2.399749421    -1.766080536     2.452571782

