187   

Si        0.000000000     0.000000000     0.000000000
 C        1.865477800     0.000000000     0.000000000
 C       -0.674202761     1.712985926     0.000000000
 C        0.141259808     2.808387875     0.301435174
 C       -0.379229740     4.102346103     0.298724732
 C       -1.724970368     4.330867881     0.000067267
 C       -2.541611791     3.231862090    -0.298394978
 C       -2.024851053     1.939168645    -0.297837149
 C       -2.311879892     5.666804853    -0.014511157
 C       -1.639576617     6.799614862     0.251366231
 C       -2.223376356     8.136789360     0.237643156
 C       -3.569202117     8.368781891    -0.060709811
 C       -4.085192818     9.663968622    -0.062235407
 C       -3.260761436    10.757029022     0.225604104
 C       -1.911867740    10.528576059     0.524594669
 C       -1.402430397     9.232541894     0.534370747
Si       -3.931693849    12.469966518     0.226222398
 C       -2.565117063    13.666170721     0.027419490
 C       -2.343233233    14.741966247     0.793873849
 C       -1.232076179    15.674250187     0.595675284
 C       -1.100706918    16.768371817     1.463686068
 C       -0.067226354    17.678590655     1.318399096
 C        0.853672624    17.550632839     0.255456721
 C        0.722124219    16.453992490    -0.616418594
 C       -0.292897057    15.524458133    -0.427829790
 N        1.895622146    18.487143594     0.127701102
 C        1.566373829    19.889419081     0.440967258
 C        2.776251120    18.352766052    -1.043883411
 C        0.381726431    20.446898923    -0.375072283
 C        0.479650245    21.972356888    -0.560792338
 N        1.020285946    22.397173555    -1.872995211
 C        2.303911484    21.857931500    -2.161612113
 C        3.366523075    22.220497984    -1.309594039
 C        4.640500454    21.728078419    -1.538364166
 C        4.905466357    20.893270532    -2.635588453
 C        3.853983567    20.558226697    -3.490690483
 C        2.567011205    21.037392380    -3.267424874
 C        0.023250728    22.281709361    -2.952159353
 C        6.270555967    20.400454082    -2.830816828
 C        6.642175092    19.600109492    -3.838720542
Si        8.348075050    18.985216766    -4.081312613
 C        9.599909320    20.169344225    -3.440425253
 C        9.357331128    21.545626849    -3.520735141
 C       10.294285200    22.458952515    -3.040314281
 C       11.498034109    22.020082336    -2.481222183
 C       11.741959215    20.642442411    -2.409745778
 C       10.806224117    19.726818686    -2.885137219
 C       12.507124343    22.939791611    -1.966118687
 C       12.396023560    24.279061949    -1.975078198
 C       13.403611998    25.200668319    -1.460633051
 C       14.606094553    24.765822307    -0.897556252
 C       15.541630690    25.682604114    -0.417874133
 C       15.290013996    27.056532048    -0.484270960
 C       14.084008430    27.495119907    -1.047768019
 C       13.155324979    26.578134662    -1.531752220
Si       16.514717891    28.278955837     0.144538138
 C       17.820544096    27.462664446     1.197127017
 C       17.361941774    29.137731561    -1.327840117
 C       15.581845325    29.593873358     1.156685090
 C        8.509124427    17.306811890    -3.200167563
 C        8.636813401    18.731726001    -5.943633409
 C       -5.136009425    12.678215844    -1.232700143
 C       -4.880114281    12.766892378     1.847508385
 C       -0.656392893    -0.901976412    -1.542559198
 C       -0.616101352    -0.922776910     1.546531751
 H        1.201574108     2.693009522     0.542706912
 H        0.277399771     4.937895932     0.534686529
 H       -3.592742032     3.387504140    -0.533595956
 H       -2.710004981     1.121575460    -0.538761366
 H       -3.376204496     5.696492312    -0.264755720
 H       -0.574933409     6.768528762     0.501871735
 H       -4.228122815     7.534724712    -0.293845495
 H       -5.145802757     9.783456245    -0.299320780
 H       -1.223284945    11.347093040     0.759965005
 H       -0.352585866     9.072713780     0.773114716
 H       -1.905040156    13.431269872    -0.824497685
 H       -2.984924712    15.009138722     1.643571084
 H       -1.815540611    16.900218723     2.276253168
 H        0.031785759    18.494155588     2.028886502
 H        1.411229160    16.316329263    -1.443682436
 H       -0.361777646    14.673877614    -1.107994652
 H        3.582818623    19.108597134    -0.994177420
 H        2.256696581    18.482750012    -2.006861075
 H        3.265891080    17.363089327    -1.022882803
 H       -0.849090162    22.907862271    -2.693985793
 H       -0.329640262    21.255536646    -3.138895672
 H        0.445069847    22.690737629    -3.887016686
 H        3.180844185    22.897902338    -0.478635098
 H        5.451765322    22.006792294    -0.864236339
 H        4.035892847    19.915540769    -4.353110157
 H        1.771355444    20.753368538    -3.949668528
 H        6.974454319    20.760695333    -2.066884634
 H        5.916831050    19.247056613    -4.587395254
 H        8.434803130    21.948383461    -3.952671293
 H       10.079507158    23.524007217    -3.107830034
 H       12.673177517    20.279785692    -1.978706314
 H       11.052398858    18.664723005    -2.802887164
 H       13.398384984    22.457629944    -1.554192280
 H       11.504435606    24.760623184    -2.387753807
 H       14.824122856    23.701600984    -0.829656458
 H       16.464713101    25.282230913     0.010424018
 H       13.832938228    28.556774726    -1.125827526
 H       12.225300061    26.937960724    -1.967856508
 H        1.353289734    19.962313572     1.531293921
 H        2.481317384    20.504049190     0.273033625
 H        0.337505465    19.945369571    -1.361298396
 H       -0.570192359    20.179165877     0.119455919
 H       -0.523922776    22.438188906    -0.439824826
 H        1.116581232    22.427521728     0.230519153
 H        2.263457666    -1.029241581    -0.050726887
 H        2.275327019     0.470201545     0.910995312
 H        2.260969052     0.551863826    -0.872073794
 H       18.528765081    28.207697585     1.601834579
 H       18.407056843    26.724405989     0.622755957
 H       17.365050621    26.937283828     2.056171881
 H       18.132586168    29.827316079    -0.876287741
 C       18.092291822    28.143992333    -2.249653289
 C       16.403313442    29.987832969    -2.180621027
 H       14.850324859    30.072330835     0.442291556
 C       14.774847216    28.981368217     2.315778497
 C       16.493341038    30.703134237     1.710990696
 H        9.555645909    16.941883741    -3.410802676
 C        8.341315416    17.430648630    -1.675109757
 C        7.522283873    16.248936263    -3.725312320
 H        7.855476130    17.992416051    -6.283628268
 C        8.446096665    20.031797799    -6.745197042
 C       10.022289872    18.144675105    -6.264126624
 H       -5.970421654    11.939801106    -1.055248156
 C       -5.753113173    14.085780537    -1.307725289
 C       -4.485132202    12.342177028    -2.586398794
 H       -5.176623435    13.855680722     1.837972590
 C       -6.163667372    11.925874132     1.967090626
 C       -4.008255561    12.516945057     3.091733331
 H       -1.781243774    -0.898712765    -1.447245322
 C       -0.292991491    -0.174404572    -2.849666185
 C       -0.196311213    -2.367408314    -1.639720238
 H       -0.125945346    -1.938434644     1.511054234
 C       -0.189953296    -0.232165294     2.855059862
 C       -2.141028907    -1.130156572     1.572824012
 H       18.859153215    27.552270910    -1.733443290
 H       18.612039480    28.686720746    -3.052298585
 H       17.408490996    27.441134328    -2.747029218
 H       15.903398921    30.782901809    -1.613087149
 H       15.627608289    29.387780847    -2.676929616
 H       16.961285069    30.490063338    -2.984470081
 H       14.059275665    28.213615055     1.988290814
 H       14.181474301    29.760460254     2.815295528
 H       15.409914603    28.532098489     3.090778220
 H       17.051775380    31.237202208     0.931343685
 H       17.218387172    30.333313389     2.448103430
 H       15.888432256    31.461384876     2.229392182
 H        9.051135553    18.130260854    -1.212240796
 H        8.514020786    16.456484270    -1.196062584
 H        7.329109019    17.744410190    -1.380471413
 H        7.630645121    16.045733024    -4.798253084
 H        6.472120381    16.512808448    -3.537105298
 H        7.693764974    15.290048337    -3.214625927
 H        7.453717038    20.484278697    -6.614706581
 H        8.554117359    19.830904517    -7.820638457
 H        9.195604263    20.798455915    -6.500236456
 H       10.199178624    17.165606838    -5.800848382
 H       10.847659755    18.808715250    -5.969132641
 H       10.125067125    17.993461762    -7.348626180
 H       -6.310794754    14.365456719    -0.404723413
 H       -6.468930677    14.139308940    -2.140239067
 H       -5.005879457    14.870680600    -1.493560192
 H       -4.057767926    11.330151159    -2.624518170
 H       -3.691947878    13.048602082    -2.867161363
 H       -5.236412446    12.387935922    -3.387427220
 H       -6.889856289    12.123266224     1.168475439
 H       -6.677434045    12.157042517     2.911568127
 H       -5.967134461    10.844548172     1.984451139
 H       -3.083782638    13.110431866     3.107929040
 H       -3.721440042    11.461318968     3.204791156
 H       -4.563338824    12.784153522     4.001765294
 H       -0.640403622     0.868400628    -2.876682896
 H       -0.765445492    -0.677434452    -3.705320769
 H        0.786231452    -0.168547369    -3.052039192
 H       -0.482963281    -2.972012355    -0.769602825
 H        0.888899049    -2.467593586    -1.773890165
 H       -0.659107173    -2.848576803    -2.513645802
 H        0.897018941    -0.117002504     2.954293176
 H       -0.515543063    -0.829027763     3.719109148
 H       -0.642824046     0.762020571     2.980037038
 H       -2.519659230    -1.692569922     0.710069514
 H       -2.699074421    -0.184946586     1.631357336
 H       -2.425775906    -1.708544471     2.463878641

