187   

Si        0.000000000     0.000000000     0.000000000
 C        1.865373014     0.000000000     0.000000000
 C       -0.682974624     1.709281125     0.000000000
 C        0.136737026     2.818604541     0.229479946
 C       -0.396346672     4.107665927     0.226206519
 C       -1.759458613     4.316367149     0.001987167
 C       -2.580340557     3.203337501    -0.224990378
 C       -2.050546532     1.916249077    -0.227363988
 C       -2.362200082     5.645012586    -0.010722556
 C       -1.692348172     6.793195073     0.186902880
 C       -2.300643448     8.119587188     0.173062628
 C       -1.486726397     9.238140943     0.393856123
 C       -2.024171867    10.523250759     0.389542278
 C       -3.389499196    10.721308991     0.154236427
 C       -4.204346102     9.604542903    -0.066287854
 C       -3.665778452     8.319242766    -0.051756744
Si       -4.131059416    12.404092136     0.141671216
 C       -5.529530242    12.517784561    -1.035483056
 C       -5.599365885    11.780138191    -2.151580017
 C       -6.694906333    11.835408817    -3.121813883
 C       -6.626220995    10.998626766    -4.246305094
 C       -7.631820771    11.005356147    -5.199476995
 C       -8.740479558    11.855621771    -5.042886430
 C       -8.827469693    12.677294707    -3.913891679
 C       -7.818655814    12.648349537    -2.954775934
 N       -9.730360491    11.796275321    -6.075667479
 C       -9.296294055    12.502903152    -7.303353222
 C      -11.089943159    12.170933595    -5.648824097
 C       -9.281584183    14.039965454    -7.190382093
 C       -8.046043590    14.693914555    -7.837249760
 N       -6.834978409    14.752243416    -6.992063766
 C       -7.001177258    15.254730559    -5.686870672
 C       -7.937890916    16.283474757    -5.446871953
 C       -8.113163312    16.788422000    -4.168969641
 C       -7.343357281    16.324420942    -3.093288565
 C       -6.386415853    15.336895934    -3.340803504
 C       -6.196060994    14.822614507    -4.616353900
 C       -5.967880030    13.570082571    -7.133369924
 C       -7.573677591    16.895504940    -1.766620325
 C       -6.905151149    16.537227864    -0.662074097
Si       -7.208512420    17.263821481     0.987698276
 C       -7.788735159    19.004504811     0.883215154
 C       -7.341514234    19.824708241    -0.159213267
 C       -7.770925003    21.147229743    -0.254344349
 C       -8.645783409    21.684053325     0.694684441
 C       -9.085638090    20.863871944     1.741672024
 C       -8.661495802    19.540541463     1.837293677
 C       -9.121013747    23.062408569     0.634575666
 C       -8.775632830    23.948515545    -0.314892302
 C       -9.249097936    25.327236679    -0.377663735
 C      -10.126537458    25.867222937     0.566104052
 C      -10.553717828    27.191343222     0.467288470
 C      -10.117643763    28.002812038    -0.584744762
 C       -9.238769064    27.463080817    -1.533722833
 C       -8.809231995    26.143153579    -1.428800031
Si      -10.672094567    29.752263843    -0.729434613
 C      -12.112529878    30.111050742     0.400310264
 C       -9.233385229    30.912587087    -0.274367733
 C      -11.160284733    30.075385361    -2.540697414
 C       -8.518338175    16.188928238     1.857218871
 C       -5.594188242    17.191548098     1.989002302
 C       -4.755740210    12.871927589     1.871733409
 C       -2.798738009    13.654855115    -0.399590907
 C       -0.658419892    -0.899962034    -1.542630394
 C       -0.605025516    -0.928463389     1.547783893
 H        1.210104453     2.717915436     0.412437224
 H        0.263816154     4.954603730     0.404123195
 H       -3.644974000     3.344052117    -0.402512675
 H       -2.739447138     1.087324516    -0.413479406
 H       -3.440220788     5.655597571    -0.198432264
 H       -0.614995793     6.784855352     0.375203511
 H       -0.421481086     9.104934241     0.572694090
 H       -1.339824217    11.355833037     0.573460238
 H       -5.280220402     9.698129297    -0.251426206
 H       -4.321926038     7.467306530    -0.221597950
 H       -6.315106871    13.242590280    -0.772712024
 H       -4.820303763    11.055058288    -2.431446484
 H       -5.772303247    10.332887668    -4.374354238
 H       -7.584460077    10.343150649    -6.061865768
 H       -9.675105747    13.343444283    -3.777340081
 H       -7.905698089    13.291665737    -2.076903605
 H      -11.793600021    11.909762804    -6.458111749
 H      -11.222703123    13.235650985    -5.404392987
 H      -11.367796232    11.570224753    -4.764783382
 H       -5.920406748    13.258580074    -8.188922645
 H       -6.296339989    12.707985836    -6.526130999
 H       -4.938734238    13.842323115    -6.834057531
 H       -8.527964758    16.686093632    -6.264583856
 H       -8.856832630    17.569149114    -4.003853794
 H       -5.765190723    14.958124931    -2.525640937
 H       -5.441374697    14.054593287    -4.760450172
 H       -8.355942856    17.668237578    -1.761909696
 H       -6.133363843    15.753228403    -0.687904299
 H       -6.652040268    19.460930631    -0.929185385
 H       -7.413973716    21.762815633    -1.078240044
 H       -9.766681278    21.262146668     2.491251849
 H       -9.038407444    18.949141951     2.675964773
 H       -9.803704515    23.347007612     1.440433598
 H       -8.092623718    23.662783233    -1.120474845
 H      -10.484499379    25.255132163     1.391872107
 H      -11.239232894    27.557772367     1.236392656
 H       -8.865619100    28.049755538    -2.378032540
 H       -8.125483748    25.742118143    -2.174637030
 H       -8.288263122    12.120545340    -7.576935558
 H       -9.978741115    12.183728116    -8.122063114
 H      -10.196491789    14.456944945    -7.648951972
 H       -9.336673036    14.334354405    -6.120708629
 H       -7.793666264    14.181308217    -8.791033161
 H       -8.290187368    15.746356068    -8.121246239
 H        2.262999008    -1.030138485    -0.032604483
 H        2.274243724     0.485791654     0.903340292
 H        2.262212919     0.536382460    -0.880997089
 H      -12.468995407    31.148913558     0.273621520
 H      -11.841820599    29.979959805     1.462646239
 H      -12.963027930    29.439652487     0.183160788
 H       -9.656968116    31.957248233    -0.324160583
 C       -8.714546909    30.675627953     1.155823791
 C       -8.044977213    30.834161929    -1.249283759
 H      -10.229623741    29.884904885    -3.150660287
 C      -12.253097658    29.111558888    -3.037228659
 C      -11.609409402    31.523103400    -2.807076704
 H       -8.659982234    16.635658867     2.882776682
 C       -9.873034834    16.226216853     1.126921537
 C       -8.087844569    14.722269950     2.032209760
 H       -5.254177107    16.115032162     1.958641732
 C       -4.486956308    18.064015343     1.371335220
 C       -5.776114546    17.586285336     3.464818405
 H       -5.230452393    13.891665837     1.764505050
 C       -5.830460756    11.897873491     2.386299468
 C       -3.633208206    12.979772626     2.917671749
 H       -1.955253942    13.540799623     0.341020104
 C       -2.250941058    13.340190237    -1.803564082
 C       -3.259670783    15.120417388    -0.365729076
 H       -1.783161466    -0.897851769    -1.444964315
 C       -0.298811842    -0.169836127    -2.849351245
 C       -0.197173045    -2.364779089    -1.642975928
 H       -0.095062045    -1.934656623     1.516539638
 C       -0.193948407    -0.225479710     2.854623034
 C       -2.125236130    -1.167187282     1.574174412
 H       -9.486497135    30.799767418     1.926128623
 H       -7.923191962    31.400622781     1.394681695
 H       -8.268831721    29.679253866     1.288924597
 H       -8.313684334    31.078800382    -2.284679648
 H       -7.557891431    29.848813804    -1.250051349
 H       -7.270052464    31.557216808    -0.955219127
 H      -11.978820531    28.052266034    -2.929657437
 H      -12.439862688    29.272684927    -4.108529633
 H      -13.216361055    29.256626611    -2.530468179
 H      -10.848493167    32.269587715    -2.544900853
 H      -12.534728860    31.788744689    -2.278905011
 H      -11.817645354    31.660127688    -3.878249124
 H      -10.283120525    17.239716297     1.018661402
 H      -10.622367519    15.652335878     1.689523763
 H       -9.829716287    15.778779771     0.122910387
 H       -7.175696386    14.606082700     2.632601255
 H       -7.930589715    14.204182006     1.075197680
 H       -8.872412265    14.160633583     2.559193864
 H       -4.264662747    17.814038867     0.324448720
 H       -3.548286867    17.935074843     1.928338238
 H       -4.719645285    19.138062758     1.410251674
 H       -6.477372978    16.938015061     4.005551126
 H       -6.113264962    18.624537965     3.593294143
 H       -4.816186023    17.510043228     3.995983946
 H       -6.703809359    11.821765771     1.723753306
 H       -6.210634066    12.234065795     3.361430241
 H       -5.445636030    10.880333652     2.544918299
 H       -2.875411548    13.733444015     2.667579650
 H       -3.113107501    12.026862615     3.089347420
 H       -4.051685801    13.277300205     3.890252998
 H       -1.832997514    12.328306366    -1.893760436
 H       -1.433882884    14.031259806    -2.054025998
 H       -3.006982797    13.457063114    -2.593915192
 H       -3.605773249    15.444620109     0.624873005
 H       -4.055325449    15.336695798    -1.092787553
 H       -2.422718980    15.784071303    -0.627699362
 H       -0.650576264     0.871512816    -2.875047129
 H       -0.770208177    -0.673816342    -3.705066836
 H        0.780108741    -0.159600589    -3.052940462
 H       -0.485551275    -2.971845071    -0.775102798
 H        0.888381243    -2.464129685    -1.774935586
 H       -0.657662471    -2.843848858    -2.519301885
 H        0.890724583    -0.091586069     2.956003161
 H       -0.511568505    -0.824054915     3.720448844
 H       -0.663477370     0.761557119     2.974522610
 H       -2.492584578    -1.735665663     0.710511614
 H       -2.702681234    -0.234083529     1.635667728
 H       -2.397380419    -1.753268750     2.464231630

