187   

Si        0.000000000     0.000000000     0.000000000
 C        1.866051745     0.000000000     0.000000000
 C       -0.672696339     1.714257615     0.000000000
 C        0.145435332     2.813969707     0.277911268
 C       -0.378469526     4.106873882     0.274230107
 C       -1.738543185     4.325804965     0.041442666
 C       -2.560045056     3.221664291    -0.223600956
 C       -2.033565579     1.933579709    -0.254601407
 C       -2.330694801     5.659230942     0.028182011
 C       -1.651269628     6.800270069     0.233436914
 C       -2.241260689     8.135271341     0.220682882
 C       -1.408368567     9.237114886     0.451173776
 C       -1.921227836    10.531973703     0.449648732
 C       -3.272506362    10.762348856     0.165743847
 C       -4.105906039     9.662100384    -0.071375688
 C       -3.598820720     8.363839143    -0.025334294
Si       -3.979227370    12.462810660     0.156264815
 C       -4.849386060    12.837623564    -1.410792321
 C       -4.539248099    12.321309487    -2.608389854
 C       -5.248954336    12.634654683    -3.851408182
 C       -4.839358286    12.036068931    -5.050820855
 C       -5.484861888    12.305982689    -6.250608565
 C       -6.519337338    13.257980973    -6.299813567
 C       -6.921927663    13.875516367    -5.097075311
 C       -6.308460190    13.547554377    -3.897686132
 N       -7.216536883    13.581688384    -7.479627662
 C       -6.925158421    12.853021190    -8.718009544
 C       -7.506393965    15.011402247    -7.682539122
 C       -5.703564257    13.348388458    -9.518300010
 C       -5.587060004    12.585592321   -10.856579245
 N       -4.395099672    11.714780801   -10.979228468
 C       -4.201526563    10.838835646    -9.881717629
 C       -5.298150568    10.068144901    -9.443745629
 C       -5.154950521     9.199325221    -8.375486447
 C       -3.900648262     8.978998568    -7.787411664
 C       -2.806579234     9.709841248    -8.253549736
 C       -2.949922794    10.638327421    -9.278929978
 C       -3.207644767    12.459837288   -11.433403145
 C       -3.814320109     8.049434215    -6.661880725
 C       -2.683589757     7.748405182    -6.010220838
Si       -2.608038305     6.582205356    -4.606697062
 C       -1.354193772     5.246651485    -4.625212140
 C       -0.806619316     4.707306367    -5.791085688
 C        0.146458504     3.688801799    -5.717692579
 C        0.556885728     3.183156369    -4.482055130
 C       -0.000623543     3.720531590    -3.314310761
 C       -0.944371459     4.737648114    -3.383568936
 C        1.545766605     2.122452891    -4.335181391
 C        2.177650921     1.498069813    -5.342724818
 C        3.163379154     0.438649403    -5.153031975
 C        3.536867879    -0.020657234    -3.886918369
 C        4.482700656    -1.035243642    -3.745249804
 C        5.066707132    -1.623660289    -4.871162295
 C        4.690785409    -1.169027891    -6.142460948
 C        3.752507132    -0.149683156    -6.279840389
Si        6.316499687    -2.963729511    -4.702214944
 C        6.432860188    -3.573960762    -2.942583006
 C        5.811332373    -4.386910504    -5.860633988
 C        8.026558717    -2.319375864    -5.234388027
 C       -2.203539039     7.753407277    -3.154222858
 C       -4.312097502     5.788811693    -4.305503133
 C       -5.202546718    12.649896711     1.600543540
 C       -2.597226409    13.757436029     0.372015119
 C       -0.664940371    -0.914438872    -1.531526447
 C       -0.608060692    -0.915620018     1.553233161
 H        1.212445465     2.703558355     0.489812752
 H        0.284781702     4.947594781     0.469893920
 H       -3.621380773     3.370219757    -0.414894655
 H       -2.718972809     1.113158151    -0.486038434
 H       -3.409742348     5.679004033    -0.152619848
 H       -0.573617967     6.779344577     0.422159939
 H       -0.348896395     9.083296671     0.646948620
 H       -1.224825356    11.347159430     0.665173856
 H       -5.169448624     9.781011857    -0.304018557
 H       -4.271665471     7.525772007    -0.197945737
 H       -5.672448865    13.560294568    -1.300328732
 H       -3.718615029    11.603792827    -2.749622591
 H       -4.011113296    11.323945096    -5.046566892
 H       -5.157942510    11.791482644    -7.152438657
 H       -7.735160052    14.594750105    -5.101218983
 H       -6.656402930    14.022536769    -2.979847286
 H       -7.934103028    15.180696040    -8.683777565
 H       -6.615838016    15.650818988    -7.569111989
 H       -8.266499439    15.336139000    -6.949176950
 H       -3.456656235    13.009393681   -12.357310930
 H       -2.407588788    11.745408596   -11.697747493
 H       -2.818854166    13.177588760   -10.694016282
 H       -6.258827094    10.157624227    -9.944137588
 H       -6.025821357     8.652254225    -8.012028076
 H       -1.822994493     9.563883282    -7.805116853
 H       -2.081167949    11.207046475    -9.594908400
 H       -4.786207856     7.605779305    -6.403832285
 H       -1.720220912     8.205657851    -6.282431183
 H       -1.096156512     5.064429000    -6.782590359
 H        0.566902421     3.287390845    -6.637111849
 H        0.300079608     3.338066817    -2.337603016
 H       -1.342659384     5.113295479    -2.432430960
 H        1.766719317     1.856036880    -3.294704684
 H        1.971404160     1.760511267    -6.382841709
 H        3.092485989     0.415608815    -2.993206367
 H        4.737545228    -1.348172305    -2.729145265
 H        5.112413676    -1.593573894    -7.057784414
 H        3.474618809     0.191320174    -7.275179956
 H       -6.808913426    11.771430539    -8.467719801
 H       -7.841359954    12.921727162    -9.352753957
 H       -5.784141577    14.433164063    -9.703732667
 H       -4.783764630    13.227238765    -8.914757070
 H       -6.480387433    11.941299260   -11.026121341
 H       -5.584667022    13.304930577   -11.704301496
 H        2.261007869    -1.030171653    -0.061193359
 H        2.273702927     0.458204378     0.917617591
 H        2.265432295     0.561584307    -0.863962772
 H        7.156814185    -4.403858058    -2.857214264
 H        5.455951788    -3.948522372    -2.587107024
 H        6.760344864    -2.775211487    -2.254275496
 H        5.802579076    -3.949600512    -6.901374113
 C        6.799642778    -5.566529976    -5.852823439
 C        4.396541039    -4.914906853    -5.560797680
 H        8.745977151    -3.164235274    -5.029389271
 C        8.120891360    -1.967638728    -6.729799736
 C        8.476815364    -1.098004706    -4.411712466
 H       -2.454109723     7.185750018    -2.212500107
 C       -0.716312293     8.143851525    -3.093510043
 C       -3.048482350     9.036980012    -3.185620900
 H       -5.059712791     6.634042440    -4.324334612
 C       -4.685476285     4.786664254    -5.413198816
 C       -4.432742260     5.085549910    -2.942129497
 H       -5.554864336    13.721771909     1.564625945
 C       -6.439110347    11.743244043     1.468962368
 C       -4.549948923    12.406635240     2.972805382
 H       -2.012180622    13.442922476     1.283425325
 C       -1.638339378    13.795007897    -0.832143863
 C       -3.129375124    15.180339781     0.621211638
 H       -1.785479112    -0.951687286    -1.398261779
 C       -0.374128051    -0.184142427    -2.852873148
 C       -0.152332055    -2.361677786    -1.645359478
 H       -0.112772126    -1.929038568     1.523046543
 C       -0.181495502    -0.215608312     2.856731784
 C       -2.131337743    -1.133163916     1.587435996
 H        7.822194091    -5.278564269    -6.129276610
 H        6.485275761    -6.324210655    -6.585306984
 H        6.847097332    -6.079234439    -4.883023068
 H        3.623988010    -4.133595872    -5.603731102
 H        4.319349965    -5.403549248    -4.580619064
 H        4.110435804    -5.670235063    -6.306487497
 H        7.880956086    -2.808909936    -7.392132208
 H        9.148286856    -1.664716596    -6.979597673
 H        7.477113785    -1.122059364    -7.009949025
 H        8.522814939    -1.291580504    -3.332367679
 H        7.833260639    -0.219591213    -4.564676517
 H        9.489451640    -0.793452470    -4.712708952
 H       -0.037537556     7.281334541    -3.047162183
 H       -0.526569407     8.731485276    -2.182041116
 H       -0.401840045     8.768958661    -3.938814331
 H       -4.127671572     8.850732813    -3.109610198
 H       -2.874143591     9.646284757    -4.082962735
 H       -2.783750034     9.669313361    -2.322544907
 H       -4.656718890     5.214349953    -6.424362151
 H       -5.710762488     4.421344239    -5.263070278
 H       -4.039236307     3.896701845    -5.415020650
 H       -4.317830286     5.773875311    -2.094968296
 H       -3.708716773     4.267076226    -2.815218698
 H       -5.428696606     4.632197308    -2.839419495
 H       -6.966977281    11.857831934     0.512438769
 H       -7.168823274    11.987335362     2.254255705
 H       -6.200717872    10.677868011     1.595169844
 H       -3.710315514    13.081775970     3.182790551
 H       -4.187086338    11.376354521     3.097840740
 H       -5.284771710    12.571634918     3.773961950
 H       -1.180299166    12.824347768    -1.064690435
 H       -0.808983798    14.487782292    -0.632885691
 H       -2.126566374    14.153601567    -1.750903012
 H       -3.745287337    15.262986656     1.525686323
 H       -3.714973380    15.572217629    -0.221887447
 H       -2.289131510    15.876151595     0.759769274
 H       -0.694225549     0.868115779    -2.858867634
 H       -0.914224123    -0.667962325    -3.679638855
 H        0.688877161    -0.211361020    -3.131667228
 H       -0.385151850    -2.979247948    -0.769434357
 H        0.931001987    -2.419073638    -1.819601125
 H       -0.625338181    -2.858414111    -2.505411802
 H        0.904958710    -0.093539234     2.952056679
 H       -0.500457264    -0.809856831     3.725158371
 H       -0.640002774     0.776186439     2.978280075
 H       -2.509918274    -1.702193154     0.728783210
 H       -2.695795008    -0.192041586     1.645068995
 H       -2.407896936    -1.710326341     2.481928652

