187   

Si        0.000000000     0.000000000     0.000000000
 C        1.865481975     0.000000000     0.000000000
 C       -0.675267165     1.712413063     0.000000000
 C        0.139169292     2.809375452     0.298224295
 C       -0.383287811     4.102561469     0.295233342
 C       -1.730347486     4.328586113     0.000800805
 C       -2.546019746     3.227878210    -0.294319383
 C       -2.027039068     1.936140572    -0.294611594
 C       -2.319717737     5.663250295    -0.014025127
 C       -1.649724869     6.798510745     0.247511571
 C       -2.239267119     8.133125713     0.232640843
 C       -1.423637233     9.233667024     0.525061517
 C       -1.942417587    10.526559712     0.522904057
 C       -3.289074004    10.750632193     0.216568743
 C       -4.105962535     9.651101621    -0.076319107
 C       -3.586994995     8.358019014    -0.062839349
Si       -4.021106227    12.441747794     0.200730987
 C       -5.292198184    12.577631177    -1.109558671
 C       -5.242170585    11.871014360    -2.246519922
 C       -6.229809153    11.942372382    -3.322617933
 C       -6.041286887    11.139660659    -4.454585441
 C       -6.940360439    11.160042546    -5.509736784
 C       -8.132136208    11.908211061    -5.417011632
 C       -8.337338521    12.693334907    -4.262060501
 C       -7.388015534    12.722724512    -3.250649881
 N       -9.059376206    11.945859783    -6.470830563
 C       -8.917244869    10.980452842    -7.573027959
 C      -10.455058384    12.234890543    -6.100889521
 C       -9.000363885     9.492712095    -7.183448511
 C      -10.438420711     8.941636898    -7.150581435
 N      -10.741356955     8.080205365    -5.983815830
 C      -10.808768554     8.845713673    -4.771668909
 C      -12.040700334     9.467037679    -4.510238425
 C      -12.198814457    10.227485370    -3.362038444
 C      -11.137155244    10.395956778    -2.460550734
 C       -9.917850911     9.766798736    -2.724647765
 C       -9.753915564     8.983872046    -3.863243602
 C       -9.871021438     6.893464157    -5.901609260
 C      -11.365085224    11.210810590    -1.264723633
 C      -10.437407884    11.448367423    -0.329505419
Si      -10.696922632    12.460995852     1.170568995
 C       -9.322173467    13.674606956     1.281959719
 C       -8.819370431    14.225328365     0.096829284
 C       -7.777547118    15.149090857     0.134733748
 C       -7.238346392    15.564165363     1.356233605
 C       -7.751543547    15.020045988     2.540509185
 C       -8.780820160    14.081830099     2.505607481
 C       -6.147641322    16.529001502     1.439182867
 C       -5.575998141    17.116354311     0.374263032
 C       -4.485110974    18.082448899     0.442334587
 C       -3.919335592    18.497081343     1.650392820
 C       -2.877028933    19.423697372     1.667332304
 C       -2.377526804    19.953394197     0.473510805
 C       -2.941733900    19.536347436    -0.739767741
 C       -3.981024232    18.610980223    -0.753726951
Si       -1.002397381    21.177145168     0.478262138
 C       -0.712710629    21.880920891     2.180886221
 C        0.589394296    20.315149042    -0.111517911
 C       -1.430727067    22.568629454    -0.747147828
 C      -12.339214013    13.415325369     1.096790919
 C      -10.723593530    11.309483562     2.682379804
 C       -4.834879390    12.839818470     1.866113950
 C       -2.623709645    13.692174085    -0.132171280
 C       -0.656608930    -0.903216174    -1.541781972
 C       -0.615214589    -0.922572017     1.547063333
 H        1.200234492     2.695851633     0.536846493
 H        0.272629195     4.939555549     0.527806506
 H       -3.598125114     3.381719729    -0.526316875
 H       -2.711346509     1.117362714    -0.533827321
 H       -3.385067039     5.690321725    -0.260547763
 H       -0.584414104     6.771666392     0.494728905
 H       -0.372245482     9.080313584     0.759466715
 H       -1.258902800    11.344553466     0.765959091
 H       -5.168365082     9.766503547    -0.320222674
 H       -4.243317027     7.520064023    -0.289280626
 H       -6.103047202    13.293189979    -0.906076000
 H       -4.431475501    11.158647763    -2.461837530
 H       -5.154897653    10.507653078    -4.527466076
 H       -6.713911133    10.582814770    -6.399806216
 H       -9.238297543    13.289918081    -4.157494136
 H       -7.561146408    13.354043512    -2.377126367
 H      -11.122092125    12.115536985    -6.968503969
 H      -10.531941571    13.289436212    -5.778616565
 H      -10.826935144    11.587662124    -5.285644698
 H      -10.044389996     6.273181476    -6.797850854
 H      -10.164881189     6.292693364    -5.023025060
 H       -8.794373939     7.109216575    -5.832311468
 H      -12.865576072     9.330223608    -5.207505404
 H      -13.161209298    10.696481186    -3.159789322
 H       -9.076678804     9.888730742    -2.039072333
 H       -8.798529531     8.498155020    -4.045640145
 H      -12.385227731    11.612288155    -1.207335383
 H       -9.420017366    11.027805645    -0.411744701
 H       -9.214327797    13.944733586    -0.886306329
 H       -7.390865700    15.554246721    -0.799402572
 H       -7.342014054    15.328970468     3.500025295
 H       -9.137972996    13.684752339     3.458942966
 H       -5.808270269    16.755959982     2.453118743
 H       -5.920497158    16.887756392    -0.639817562
 H       -4.291086096    18.100070156     2.593166920
 H       -2.475934708    19.713215346     2.642469037
 H       -2.591274047    19.916967114    -1.703529499
 H       -4.405909960    18.297700477    -1.705993101
 H       -9.679096433    11.220719830    -8.348069821
 H       -7.930628600    11.183034641    -8.057758997
 H       -8.388722186     8.896375491    -7.884451146
 H       -8.526791519     9.350268926    -6.189253736
 H      -11.179456042     9.771395020    -7.154505285
 H      -10.643551799     8.340303388    -8.063510675
 H        2.263518336    -1.029373833    -0.046603149
 H        2.275102907     0.473938386     0.909171783
 H        2.260950093     0.548535989    -0.874180163
 H        0.083499084    22.646641405     2.164984984
 H       -0.408828668    21.100638735     2.900428388
 H       -1.627768966    22.362338207     2.571301730
 H        1.406128426    21.088565903    -0.024906509
 C        0.970940507    19.114604513     0.774189744
 C        0.529807918    19.846308078    -1.576281074
 H       -1.538655394    22.071486940    -1.755017874
 C       -2.768131742    23.255007713    -0.415501193
 C       -0.332474630    23.640205130    -0.866822602
 H      -13.143105166    12.642000395     0.926820498
 C      -12.662973677    14.157902430     2.405473728
 C      -12.387115583    14.421632717    -0.067701651
 H      -10.826629194    11.980629674     3.583681218
 C      -11.918615079    10.339432072     2.673959649
 C       -9.425225056    10.498488596     2.836757639
 H       -5.307920016    13.859925604     1.736417686
 C       -5.951552272    11.842187978     2.219689091
 C       -3.842395161    12.923175090     3.037653149
 H       -1.864680016    13.525667259     0.686292213
 C       -1.933899744    13.446355332    -1.486861516
 C       -3.071671864    15.158872966    -0.065916450
 H       -1.781156170    -0.906006589    -1.443019783
 C       -0.301185482    -0.172094856    -2.849127646
 C       -0.189320025    -2.366176277    -1.642227954
 H       -0.125900868    -1.938622741     1.511224703
 C       -0.186882693    -0.232310846     2.855116731
 C       -2.140237095    -1.129072667     1.575227492
 H        1.118965655    19.380113418     1.828802504
 H        1.921172412    18.680622029     0.431144885
 H        0.230319805    18.302805776     0.735786293
 H        0.344088229    20.660783208    -2.287774050
 H       -0.229599148    19.069767218    -1.745512342
 H        1.492440137    19.400626033    -1.866936013
 H       -3.614856591    22.555466526    -0.367112754
 H       -3.019750312    23.987381771    -1.195895574
 H       -2.742858314    23.809551574     0.531951756
 H        0.640508974    23.233418011    -1.171415407
 H       -0.182630829    24.206060820     0.062224213
 H       -0.610404318    24.377825539    -1.633837678
 H      -12.753020622    13.492131961     3.273462285
 H      -13.629287906    14.675273605     2.315347541
 H      -11.924285762    14.933426299     2.652999393
 H      -12.199271403    13.967877030    -1.050381287
 H      -11.672503328    15.248366339     0.056154826
 H      -13.382693362    14.883550038    -0.125556732
 H      -12.892275695    10.845599853     2.659303142
 H      -11.908675717     9.722193890     3.583910014
 H      -11.894882581     9.637472527     1.828045233
 H       -8.524654541    11.125153669     2.904957869
 H       -9.269630381     9.779202253     2.020254264
 H       -9.457833513     9.907435784     3.763157276
 H       -6.735852488    11.784144766     1.450253537
 H       -6.453743549    12.158045643     3.145582313
 H       -5.578104039    10.824847409     2.398162839
 H       -3.068216633    13.688540880     2.895656815
 H       -3.337678085    11.968529416     3.240057149
 H       -4.374352588    13.191365662     3.961599537
 H       -1.521562513    12.433880604    -1.591459862
 H       -1.089201939    14.138391696    -1.610409796
 H       -2.603312627    13.619975890    -2.341889070
 H       -3.521664464    15.436685846     0.897186918
 H       -3.788375694    15.424471763    -0.855309236
 H       -2.208682041    15.827406986    -0.199368549
 H       -0.654962246     0.868650786    -2.873782021
 H       -0.772944289    -0.676947508    -3.704032402
 H        0.777412112    -0.159404596    -3.054445224
 H       -0.473857388    -2.974052946    -0.773692164
 H        0.896463756    -2.460853056    -1.775710119
 H       -0.649020380    -2.847516278    -2.517654798
 H        0.900467933    -0.120279917     2.953818464
 H       -0.513911845    -0.827508400     3.719726127
 H       -0.636807942     0.763311362     2.979501500
 H       -2.519006615    -1.696973737     0.716159331
 H       -2.698060904    -0.183357141     1.627814892
 H       -2.425026845    -1.701495711     2.470099402

