187   

Si        0.000000000     0.000000000     0.000000000
 C        1.865285983     0.000000000     0.000000000
 C       -0.673352959     1.713491122     0.000000000
 C        0.123441803     2.797153138     0.383469256
 C       -0.392403381     4.092866885     0.381378292
 C       -1.715436104     4.334834374     0.002342719
 C       -2.513934514     3.247509088    -0.376671790
 C       -2.001764409     1.952888752    -0.376244497
 C       -2.296629759     5.673245969    -0.014741233
 C       -1.639814440     6.795659343     0.324115527
 C       -2.218104511     8.135180937     0.308062435
 C       -1.414586954     9.219033954     0.687525357
 C       -1.921580285    10.515596401     0.688269613
 C       -3.249795008    10.757723061     0.315012925
 C       -4.053862140     9.678194811    -0.064479994
 C       -3.540409117     8.381550957    -0.070833868
Si       -3.920994860    12.470387779     0.315542423
 C       -5.747753060    12.423200970     0.291924246
 C       -6.539641225    13.104740648    -0.546050160
 C       -8.001867790    13.037586422    -0.530308522
 C       -8.726396299    13.797962324    -1.458317769
 C      -10.111645026    13.769807773    -1.485221604
 C      -10.827929065    12.925703768    -0.609708276
 C      -10.099370953    12.158217427     0.320217709
 C       -8.713966864    12.236507115     0.366991325
 N      -12.233809721    12.896685508    -0.636536367
 C      -12.895328536    13.249309186    -1.904740869
 C      -12.888734234    11.769779319     0.050351975
 C      -12.593019767    12.258465932    -3.040371588
 C      -13.176587587    12.767883962    -4.368029522
 N      -12.984062805    11.825724540    -5.484315612
 C      -13.629291065    10.578567873    -5.393387138
 C      -14.841016251    10.453791232    -4.680518972
 C      -15.479653407     9.227521621    -4.588527503
 C      -14.972016892     8.093793002    -5.238147022
 C      -13.789113750     8.225657558    -5.970599751
 C      -13.127061538     9.443174064    -6.058378012
 C      -11.600549885    11.822830132    -5.990710312
 C      -15.686606463     6.823299241    -5.107431465
 C      -15.295896461     5.677661096    -5.682077693
Si      -16.183105053     4.086974490    -5.523419056
 C      -17.994304962     4.316885554    -5.298648138
 C      -18.634423890     5.427448158    -5.864077598
 C      -20.004727572     5.611416561    -5.700302298
 C      -20.771875180     4.684811337    -4.982020892
 C      -20.132341880     3.572487128    -4.427831571
 C      -18.759271472     3.387779085    -4.585906808
 C      -22.204459658     4.921464595    -4.837776351
 C      -23.050324850     4.116801442    -4.172296538
 C      -24.482895190     4.354093543    -4.028447411
 C      -25.122334977     5.466011842    -4.582406216
 C      -26.494948838     5.653828921    -4.420278670
 C      -27.260269368     4.726997182    -3.705799315
 C      -26.621565141     3.609684181    -3.150686305
 C      -25.250557319     3.428182288    -3.309045248
Si      -29.072694828     4.959771684    -3.482513348
 C      -29.735830270     6.299291982    -4.598577222
 C      -29.935466691     3.304748671    -3.856352872
 C      -29.434183358     5.437511415    -1.675684310
 C      -15.890980226     3.081661084    -7.112028944
 C      -15.459328454     3.124812690    -4.050150884
 C       -3.358922817    13.363145114     1.899504595
 C       -3.239593505    13.409459862    -1.191404401
 C       -0.652506235    -0.908034781    -1.540886316
 C       -0.623513548    -0.916838851     1.546801533
 H        1.165713347     2.671016651     0.689399717
 H        0.249839950     4.919187726     0.680710980
 H       -3.547380343     3.413689884    -0.674931866
 H       -2.672380324     1.144686341    -0.681023797
 H       -3.342461845     5.714341893    -0.332745785
 H       -0.593842526     6.753359607     0.642070343
 H       -0.381852552     9.048177244     0.984982795
 H       -1.248204847    11.321655677     0.992544303
 H       -5.097382503     9.810539265    -0.368631523
 H       -4.184236087     7.557756639    -0.373325532
 H       -6.175287000    11.766572772     1.068248024
 H       -6.147111027    13.772952819    -1.323674907
 H       -8.194774744    14.435455059    -2.165601275
 H      -10.638247284    14.400418498    -2.195094560
 H      -10.609733859    11.503598558     1.019612365
 H       -8.176922108    11.644141082     1.110155066
 H      -13.982356587    11.829375976    -0.079458655
 H      -12.692304633    11.843277009     1.135439278
 H      -12.551553094    10.783348524    -0.308951226
 H      -11.190049903    12.846402686    -5.978642444
 H      -11.601915351    11.492518266    -7.045318958
 H      -10.923672668    11.172293805    -5.412326331
 H      -15.281106540    11.316838860    -4.189937056
 H      -16.402395961     9.150233362    -4.011540868
 H      -13.371854262     7.360245260    -6.487915937
 H      -12.212576093     9.499850298    -6.639971257
 H      -16.592104539     6.898529358    -4.488542258
 H      -14.379003384     5.628567120    -6.289152523
 H      -18.087269132     6.179696393    -6.442776338
 H      -20.483376221     6.484205395    -6.140570209
 H      -20.705155397     2.836765321    -3.866632454
 H      -18.316198821     2.498091098    -4.130213739
 H      -22.568751791     5.831382715    -5.323821212
 H      -22.686641748     3.206400818    -3.686918873
 H      -24.550381330     6.199674879    -5.147582891
 H      -26.938354986     6.543756061    -4.875447016
 H      -27.168960770     2.851420417    -2.583617826
 H      -24.772306980     2.554772058    -2.869782681
 H      -13.992559507    13.306774118    -1.721060988
 H      -12.587514901    14.281917109    -2.187848642
 H      -11.500029875    12.107172393    -3.135935190
 H      -13.005346022    11.259597639    -2.798736652
 H      -14.265846373    12.977560463    -4.265705185
 H      -12.711793562    13.740250474    -4.649769728
 H        2.263306144    -1.029028252    -0.054823629
 H        2.276200548     0.466944514     0.912095036
 H        2.259899420     0.555423154    -0.870339072
 H      -30.829922690     6.404197487    -4.487481907
 H      -29.531191265     6.068421008    -5.659824992
 H      -29.283255472     7.280883580    -4.373411686
 H      -29.513357195     2.562531141    -3.117814090
 C      -31.461241081     3.349168986    -3.659906034
 C      -29.626817069     2.786295162    -5.272582089
 H      -30.544948538     5.630778209    -1.628739776
 C      -29.101501957     4.326840520    -0.663435623
 C      -28.706985211     6.726329645    -1.250086559
 H      -14.773596275     2.954032423    -7.200042920
 C      -16.530405975     1.683001472    -7.068961925
 C      -16.388235675     3.820891078    -8.367253231
 H      -15.983052014     2.125628068    -4.040609782
 C      -13.947531908     2.866464037    -4.178741224
 C      -15.734319899     3.822852755    -2.706129319
 H       -2.231866281    13.393879175     1.855788989
 C       -3.872422179    14.810797366     1.988774193
 C       -3.763732155    12.606148985     3.176927845
 H       -3.763160134    14.409229594    -1.195218413
 C       -1.724009674    13.667979466    -1.119974723
 C       -3.555978370    12.695550398    -2.518485983
 H       -1.777321808    -0.911634366    -1.445365755
 C       -0.293351313    -0.181160978    -2.849505599
 C       -0.184462970    -2.371191758    -1.635427511
 H       -0.142851123    -1.937021998     1.513150234
 C       -0.192941142    -0.229039879     2.855311159
 C       -2.150546358    -1.109194587     1.569794286
 H      -31.760927724     3.644102197    -2.645966486
 H      -31.890273586     2.350677654    -3.828611142
 H      -31.964685417     4.022117403    -4.366592233
 H      -28.550736704     2.675769744    -5.469293665
 H      -30.043689554     3.423615141    -6.063610176
 H      -30.068238583     1.789429761    -5.413757298
 H      -29.645088418     3.391640434    -0.847793064
 H      -29.380418016     4.648042596     0.350834315
 H      -28.028430414     4.092353299    -0.624720484
 H      -28.955642627     7.594249478    -1.874242455
 H      -27.612668460     6.619042881    -1.250384042
 H      -28.989146122     6.996380795    -0.222345857
 H      -16.150387543     1.054792999    -6.253375456
 H      -16.312269987     1.140838075    -8.000519900
 H      -17.626223517     1.715420406    -6.984417348
 H      -15.931247750     4.811053925    -8.500640852
 H      -17.479578755     3.955122043    -8.379524260
 H      -16.140358200     3.242867810    -9.268699494
 H      -13.676355092     2.303650809    -5.080927812
 H      -13.595282529     2.267285359    -3.326702009
 H      -13.353969350     3.791519080    -4.168878592
 H      -16.802927472     3.989556507    -2.511341372
 H      -15.227535865     4.794868947    -2.618449528
 H      -15.362701522     3.205239766    -1.876537715
 H       -3.549437277    15.439999992     1.149472155
 H       -3.487518353    15.291493128     2.899516677
 H       -4.968639110    14.873050574     2.048351806
 H       -3.394904060    11.571067197     3.205202135
 H       -4.851215807    12.575827681     3.330289797
 H       -3.341742459    13.105860707     4.060533988
 H       -1.423300246    14.259712575    -0.246058764
 H       -1.398754683    14.238509987    -2.002169334
 H       -1.131448978    12.742304720    -1.121162193
 H       -4.627330576    12.507992370    -2.672736357
 H       -3.037812123    11.730473665    -2.616267599
 H       -3.224099983    13.310200577    -3.366835153
 H       -0.646189397     0.859746500    -2.878730406
 H       -0.762892311    -0.688584392    -3.704168136
 H        0.785860677    -0.169796986    -3.051968910
 H       -0.469627642    -2.976135046    -0.765050719
 H        0.901473245    -2.466026312    -1.767565814
 H       -0.643154771    -2.855888148    -2.509572998
 H        0.895020546    -0.125919274     2.956782448
 H       -0.526973251    -0.821116601     3.719461480
 H       -0.635388795     0.770084489     2.978051943
 H       -2.531053089    -1.677753608     0.711857689
 H       -2.700090778    -0.158194823     1.614862047
 H       -2.444358541    -1.674698661     2.466123241

