187   

Si        0.000000000     0.000000000     0.000000000
 C        1.865443126     0.000000000     0.000000000
 C       -0.686074525     1.707826942     0.000000000
 C        0.133220156     2.821353364    -0.209159677
 C       -0.404554562     4.108629623    -0.205750476
 C       -1.771982602     4.310939645    -0.003317803
 C       -2.592383889     3.193491774     0.203250504
 C       -2.057903994     1.908485671     0.206983387
 C       -2.380892898     5.636675222     0.008859646
 C       -1.714574293     6.790128864    -0.168780492
 C       -2.331852167     8.112413960    -0.155068490
 C       -1.522609374     9.238537832    -0.353476777
 C       -2.069620165    10.519602242    -0.348222112
 C       -3.440436925    10.704994701    -0.133253436
 C       -4.250902733     9.581052408     0.064712164
 C       -3.702176098     8.300046701     0.047994751
Si       -4.190975626    12.384773013    -0.120844462
 C       -5.637160287    12.476195149     0.994988971
 C       -5.780927803    11.733348784     2.100901245
 C       -6.936383233    11.803592448     2.996121243
 C       -6.969743454    10.972418427     4.124489109
 C       -8.039774946    10.999105519     5.004288361
 C       -9.104881528    11.904689559     4.809992829
 C       -9.070837278    12.739976894     3.676237794
 C       -8.013403260    12.667333678     2.779048644
 N      -10.190361463    11.930586855     5.703924524
 C       -9.937451666    11.500731261     7.090091699
 C      -11.090201975    13.094343234     5.626005850
 C       -8.977897613    12.434593220     7.845440080
 C       -8.623193091    11.844490367     9.219896019
 N       -7.834860679    12.764332758    10.058645772
 C       -8.458218090    13.956396944    10.470555815
 C       -9.860962426    14.017609682    10.613925873
 C      -10.475928682    15.191182610    11.019560362
 C       -9.725229568    16.328840326    11.347217006
 C       -8.333869652    16.257589237    11.236067952
 C       -7.703002579    15.095112566    10.813182711
 C       -6.430769336    12.864827096     9.623723485
 C      -10.427853551    17.541087367    11.769499467
 C       -9.819853074    18.686653645    12.106634427
Si      -10.703746694    20.198069239    12.633514434
 C      -12.287936845    19.804492795    13.481987601
 C      -12.388522463    18.642564368    14.258859238
 C      -13.579258848    18.328664219    14.908096507
 C      -14.693780866    19.172315788    14.809929358
 C      -14.587587407    20.334889495    14.041762751
 C      -13.397744029    20.649923236    13.386094687
 C      -15.919188141    18.799675852    15.508849734
 C      -17.057180150    19.514237687    15.493924564
 C      -18.282018200    19.140452089    16.193345871
 C      -18.386559048    17.977684583    16.961005840
 C      -19.577299918    17.658231068    17.613456874
 C      -20.690278925    18.498979129    17.515282534
 C      -20.587944477    19.665998131    16.745838513
 C      -19.399579590    19.980069883    16.092559499
Si      -22.269414910    18.092863526    18.369651631
 C      -22.054591374    16.691351520    19.581879931
 C      -22.876676450    19.656167914    19.269812988
 C      -23.578813152    17.587500114    17.083642988
 C       -9.588748732    21.155128510    13.841998473
 C      -11.025020493    21.286467701    11.106667695
 C       -2.906066278    13.675694196     0.427954534
 C       -4.767707089    12.807439289    -1.883627994
 C       -0.600354762    -0.928556610    -1.549757706
 C       -0.659357096    -0.901771356     1.541045433
 H        1.209560327     2.725613800    -0.376280456
 H        0.255381939     4.959257932    -0.365679057
 H       -3.660316710     3.329147283     0.363854285
 H       -2.746467040     1.076022995     0.378058165
 H       -3.462032214     5.640182346     0.178215196
 H       -0.634285317     6.789479670    -0.338839411
 H       -0.453809044     9.114449234    -0.515735353
 H       -1.389651454    11.359467181    -0.513995346
 H       -5.330285392     9.665831013     0.232776669
 H       -4.354671713     7.441965882     0.199380879
 H       -6.397250047    13.215112641     0.700276820
 H       -5.030155478    10.997404415     2.423223200
 H       -6.145095219    10.282687069     4.310729175
 H       -8.045407327    10.316626381     5.848875133
 H       -9.873963162    13.443311777     3.481289551
 H       -8.022539209    13.312691445     1.899294718
 H      -11.870590165    13.023840142     6.402281936
 H      -11.609277561    13.086092003     4.650430096
 H      -10.569318716    14.058712261     5.746681677
 H       -6.069840758    11.883011580     9.274062387
 H       -5.803050416    13.145633445    10.488853081
 H       -6.274884450    13.597888513     8.814957756
 H      -10.474282511    13.147715817    10.399010616
 H      -11.563693460    15.222069841    11.098319243
 H       -7.724379497    17.127348555    11.486390765
 H       -6.620025567    15.083301639    10.744036036
 H      -11.520530122    17.420291454    11.792374879
 H       -8.724728681    18.785412976    12.066889109
 H      -11.548728366    17.948835274    14.375936947
 H      -13.641003499    17.417797097    15.500800751
 H      -15.437951607    21.007759423    13.949602191
 H      -13.375630018    21.572948266    12.800536977
 H      -15.857460116    17.863488780    16.071626662
 H      -17.118971809    20.450363318    14.931359319
 H      -17.534196172    17.307477354    17.056276594
 H      -19.598053018    16.735221163    18.199519444
 H      -21.424461245    20.361699775    16.634067167
 H      -19.339726848    20.890219719    15.498852676
 H      -10.916341131    11.439233941     7.618483464
 H       -9.543930349    10.458831181     7.072159358
 H       -8.058093629    12.600414058     7.251402194
 H       -9.433883373    13.436705751     7.964112797
 H       -9.544176838    11.558622159     9.777511842
 H       -8.043912975    10.900546741     9.099980803
 H        2.262092229    -1.030452010     0.035650399
 H        2.263279080     0.538860060     0.878943477
 H        2.273931757     0.482660150    -0.905159184
 H      -22.996740408    16.483630727    20.120031554
 H      -21.287350502    16.935527457    20.338943274
 H      -21.746823238    15.758344741    19.078155676
 H      -23.025617942    20.436367947    18.467538551
 C      -24.220336945    19.464293364    19.995348208
 C      -21.839839572    20.200879648    20.268946216
 H      -24.491549904    17.294086971    17.678925032
 C      -23.980676302    18.725002985    16.127893811
 C      -23.144656239    16.370571390    16.246110745
 H       -8.638872258    21.383079518    13.277829998
 C      -10.202528707    22.488038704    14.304267569
 C       -9.219836764    20.317801177    15.079916227
 H      -11.509695223    22.230111385    11.490694989
 C       -9.736193049    21.684260698    10.364914345
 C      -11.990099637    20.622760087    10.108105398
 H       -2.071947111    13.630025812    -0.330355403
 C       -3.458019599    15.112504813     0.439077024
 C       -2.313392916    13.357944229     1.812573073
 H       -5.205819595    13.845561414    -1.828691355
 C       -3.619891217    12.825920628    -2.907936865
 C       -5.866610364    11.851021494    -2.380799577
 H       -0.084672133    -1.931984581    -1.520304664
 C       -2.119140215    -1.176515942    -1.577306274
 C       -0.193326795    -0.220794420    -2.855235570
 H       -1.784304352    -0.894463984     1.445454451
 C       -0.203994313    -2.368722839     1.637090275
 C       -0.294795939    -0.176396904     2.849191310
 H      -25.032672039    19.146453702    19.329099717
 H      -24.544436287    20.415411357    20.442463691
 H      -24.162447206    18.742070584    20.820445594
 H      -20.866193171    20.419514300    19.807307675
 H      -21.660387264    19.523269499    21.114119667
 H      -22.193844862    21.147658435    20.701222524
 H      -24.387140499    19.604239084    16.643519400
 H      -24.769782741    18.379270916    15.444209775
 H      -23.150658168    19.060059824    15.490125172
 H      -22.917463864    15.482924619    16.850390190
 H      -22.267668122    16.577150868    15.615835360
 H      -23.953030665    16.076851161    15.561292828
 H      -10.404297458    23.183993317    13.480139267
 H       -9.508496980    23.007228983    14.981142351
 H      -11.137425156    22.356562879    14.867903637
 H       -8.721932388    19.370019110    14.833357047
 H      -10.089424103    20.081649226    15.710198167
 H       -8.520995933    20.876327942    15.718627111
 H       -9.024380942    22.235652939    10.992323720
 H       -9.977890442    22.346805220     9.521325576
 H       -9.207437379    20.821899087     9.935103187
 H      -12.963184206    20.362822065    10.547370825
 H      -11.576701626    19.707953448     9.659048603
 H      -12.201277313    21.307076133     9.274543792
 H       -3.828922635    15.444686263    -0.538852148
 H       -2.662925564    15.817920654     0.720763300
 H       -4.266140700    15.253972026     1.170512825
 H       -1.844344004    12.365858445     1.869803816
 H       -3.058490282    13.417105576     2.619224927
 H       -1.528430233    14.084964853     2.063657707
 H       -2.836793723    13.557695343    -2.672264344
 H       -4.005994967    13.099139042    -3.900703113
 H       -3.137092670    11.845320790    -3.027569554
 H       -6.751614998    11.827108860    -1.730257198
 H       -5.512303143    10.816509091    -2.496772412
 H       -6.221082966    12.166426360    -3.372281893
 H       -2.483944363    -1.746681948    -0.713700669
 H       -2.386601723    -1.764692888    -2.467380982
 H       -2.702137725    -0.247025898    -1.640176072
 H        0.890415968    -0.078962398    -2.955689915
 H       -0.669641372     0.763154516    -2.973820762
 H       -0.506071382    -0.820194144    -3.722205162
 H       -0.490334522    -2.971095196     0.765312322
 H       -0.670191265    -2.849948265     2.509185841
 H        0.880649469    -2.472293868     1.773393131
 H       -0.642068478     0.866365454     2.877939499
 H        0.784382092    -0.171479393     3.051486596
 H       -0.767574087    -0.680701353     3.703995714

