187   

Si        0.000000000     0.000000000     0.000000000
 C        1.865070477     0.000000000     0.000000000
 C       -0.684349933     1.708480299     0.000000000
 C        0.112782522     2.807752862     0.334609120
 C       -0.419001478     4.097337981     0.330491737
 C       -1.757736337     4.316924142    -0.003984389
 C       -2.556179514     3.213846676    -0.335169629
 C       -2.028588242     1.925730742    -0.331587229
 C       -2.358768101     5.646181248    -0.022371211
 C       -1.710789456     6.785902626     0.272942760
 C       -2.318357073     8.112612545     0.252535448
 C       -1.529339433     9.222058696     0.582322623
 C       -2.067399815    10.507045731     0.576034530
 C       -3.405937250    10.714101760     0.223715568
 C       -4.195847679     9.606799771    -0.108667830
 C       -3.657931583     8.321283520    -0.088799396
Si       -4.155389835    12.394122467     0.202590786
 C       -5.374491451    12.567861743    -1.149067375
 C       -5.302766011    11.905685567    -2.311691266
 C       -6.274513153    12.039741115    -3.397543913
 C       -6.088265610    11.290297123    -4.568366091
 C       -6.977739233    11.379474318    -5.626165150
 C       -8.074029201    12.267112769    -5.565852267
 C       -8.262242169    13.018852858    -4.390556258
 C       -7.385335032    12.883662130    -3.321536395
 N       -8.969109122    12.346365881    -6.648710422
 C       -8.397125538    12.182756180    -7.998153485
 C       -9.998605162    13.397997958    -6.586104567
 C       -7.352369669    13.258690919    -8.345899885
 C       -7.086042509    13.375632122    -9.855711817
 N       -8.253440540    13.727651302   -10.699048240
 C       -9.197466272    14.586846958   -10.088426667
 C       -8.733272040    15.816239473    -9.574624694
 C       -9.614357263    16.694387392    -8.967144647
 C      -10.983661690    16.398944426    -8.878928570
 C      -11.442420712    15.193762735    -9.414056009
 C      -10.569505407    14.298730941   -10.023323207
 C       -8.800265094    12.577990985   -11.438931406
 C      -11.874017724    17.361537646    -8.226285886
 C      -13.193332727    17.179791156    -8.088236680
Si      -14.362302843    18.333994032    -7.287873145
 C      -15.377166080    17.397131485    -6.072426667
 C      -14.852313243    16.244919505    -5.472748513
 C      -15.607864539    15.525009138    -4.551033837
 C      -16.897347554    15.944091683    -4.197238949
 C      -17.414027820    17.098398048    -4.792476552
 C      -16.662632824    17.819435428    -5.719837233
 C      -17.649388602    15.155712178    -3.226666497
 C      -18.892793328    15.443319157    -2.805972583
 C      -19.644397487    14.654546692    -1.835330724
 C      -19.128446729    13.500575603    -1.239970229
 C      -19.882195150    12.776437077    -0.316331673
 C      -21.173582976    13.188349226     0.027207198
 C      -21.694086429    14.344685687    -0.569773500
 C      -20.937525873    15.068068443    -1.487463266
Si      -22.181878393    12.244259272     1.244326542
 C      -21.419009606    10.585965651     1.628407234
 C      -22.323170078    13.237663542     2.861969842
 C      -23.926473039    12.015840316     0.518343421
 C      -13.449697988    19.734509081    -6.383067004
 C      -15.481329405    19.094078663    -8.624283343
 C       -5.046804946    12.688831129     1.856959503
 C       -2.807491875    13.719868449    -0.008663878
 C       -0.651067350    -0.908286764    -1.541635754
 C       -0.616105174    -0.922430580     1.546845399
 H        1.167151545     2.698352419     0.603083180
 H        0.223131232     4.936218879     0.592638728
 H       -3.601848965     3.362795015    -0.598018712
 H       -2.700341532     1.104905444    -0.598203109
 H       -3.416284806     5.665330017    -0.302713675
 H       -0.653939442     6.769939912     0.553889587
 H       -0.484203076     9.081595904     0.850686937
 H       -1.405475670    11.332804119     0.850089646
 H       -5.249197157     9.709428448    -0.392359059
 H       -4.294173789     7.476648705    -0.347006199
 H       -6.185166045    13.283801110    -0.947773880
 H       -4.498477324    11.191074970    -2.538836710
 H       -5.234755286    10.615121874    -4.645423491
 H       -6.824428608    10.759237703    -6.504260245
 H       -9.096077226    13.707669597    -4.299224360
 H       -7.564353786    13.465258842    -2.416076852
 H      -10.619071520    13.376682643    -7.500209775
 H       -9.587102784    14.416265834    -6.488540056
 H      -10.671727203    13.194881239    -5.733939341
 H       -7.986085904    12.099731823   -12.011276862
 H       -9.536087397    12.939678184   -12.180028639
 H       -9.278575608    11.813134242   -10.807767648
 H       -7.679459787    16.070697872    -9.663289994
 H       -9.238139508    17.635023407    -8.563434773
 H      -12.503699208    14.943585427    -9.364135274
 H      -10.963652194    13.373010457   -10.430807831
 H      -11.352769638    18.253635240    -7.856411443
 H      -13.686182662    16.273789068    -8.480710404
 H      -13.849375534    15.873524197    -5.708438853
 H      -15.187969478    14.627916243    -4.099447899
 H      -18.413054511    17.445156808    -4.534978357
 H      -17.119386912    18.713352087    -6.152975487
 H      -17.121289957    14.277751572    -2.843012973
 H      -19.421214409    16.321002147    -3.189433419
 H      -18.127401725    13.156178203    -1.493201788
 H      -19.424385008    11.882545649     0.116542679
 H      -22.698122970    14.713265754    -0.341209678
 H      -21.358867736    15.963742035    -1.939884302
 H       -7.955132599    11.164866963    -8.077267219
 H       -9.239031546    12.203766109    -8.727131728
 H       -7.680253544    14.237967825    -7.941747580
 H       -6.401797135    13.040234784    -7.820138460
 H       -6.325105541    14.175911910   -10.028144568
 H       -6.631459452    12.433634231   -10.231565527
 H        2.262838243    -1.029691855    -0.042274890
 H        2.275556003     0.477831070     0.906761258
 H        2.260772993     0.544830890    -0.876499609
 H      -22.053747764    10.007086679     2.322944039
 H      -20.424639350    10.691366715     2.096661594
 H      -21.297661427     9.982859324     0.710282373
 H      -22.886028649    12.572236206     3.578703444
 C      -20.949316225    13.552787083     3.481773118
 C      -23.110487369    14.552049932     2.715273471
 H      -24.331928737    13.056822249     0.355603432
 C      -23.908690153    11.299879414    -0.844323551
 C      -24.892481335    11.276218243     1.460931195
 H      -12.764796583    20.204991064    -7.146702653
 C      -14.392153491    20.827921557    -5.849455227
 C      -12.585216169    19.215132919    -5.219220759
 H      -16.168320509    19.808668274    -8.084717455
 C      -14.698244820    19.893705505    -9.680488274
 C      -16.351735490    18.042354258    -9.334852583
 H       -5.479319835    13.729078194     1.796754892
 C       -6.206747367    11.701806732     2.079770715
 C       -4.102447272    12.632805875     3.070495065
 H       -2.102367991    13.591513865     0.862622361
 C       -2.003867375    13.534374367    -1.308423109
 C       -3.357986585    15.156776968     0.035476914
 H       -1.775674407    -0.917677262    -1.443882183
 C       -0.298508610    -0.176712659    -2.849451601
 C       -0.175964135    -2.368920474    -1.640160970
 H       -0.125000669    -1.937709684     1.512913560
 C       -0.191799722    -0.230123926     2.855072025
 C       -2.140885009    -1.131317833     1.571528924
 H      -20.352652510    12.657471193     3.698994148
 H      -21.079326152    14.075031823     4.440546077
 H      -20.338204644    14.214844468     2.851454777
 H      -24.136387596    14.407629340     2.353697062
 H      -22.615600283    15.273760326     2.050355209
 H      -23.197629335    15.048076134     3.693068523
 H      -23.280879134    11.805529621    -1.591985072
 H      -24.923139325    11.268158290    -1.266738464
 H      -23.569073036    10.257795118    -0.777611918
 H      -25.014308872    11.770438760     2.433473001
 H      -24.595028819    10.236079713     1.649020682
 H      -25.895093823    11.231991573     1.011214542
 H      -14.967533276    21.329527121    -6.637989684
 H      -13.809421561    21.614739131    -5.348390044
 H      -15.103954906    20.452638472    -5.100514472
 H      -11.852728857    18.453880876    -5.520151665
 H      -13.184990629    18.789012288    -4.401851475
 H      -12.009539089    20.041555444    -4.779062248
 H      -14.118742794    20.724111943    -9.256863434
 H      -15.393387748    20.342190360   -10.404690726
 H      -14.007068842    19.269507011   -10.264860993
 H      -16.974442011    17.453845687    -8.646409026
 H      -15.763724028    17.335885576    -9.936675392
 H      -17.045767266    18.535446426   -10.030436878
 H       -6.956753868    11.721449535     1.277224730
 H       -6.741091825    11.951164022     3.007388353
 H       -5.866973620    10.662022302     2.191517220
 H       -3.297364566    13.377524315     3.030918605
 H       -3.638531768    11.645336979     3.206611996
 H       -4.663835059    12.836506774     3.993811110
 H       -1.528036047    12.547519480    -1.391770983
 H       -1.192285828    14.273492934    -1.359879818
 H       -2.614155813    13.682398634    -2.211363103
 H       -3.877709480    15.395784700     0.971974401
 H       -4.043469182    15.376921960    -0.794887297
 H       -2.532306799    15.877902031    -0.049246050
 H       -0.658146378     0.861943349    -2.875878091
 H       -0.766436068    -0.685401925    -3.704238728
 H        0.780207565    -0.158173484    -3.053700447
 H       -0.457424855    -2.977042160    -0.770794214
 H        0.910290835    -2.458010092    -1.773460531
 H       -0.633137042    -2.853763588    -2.514977212
 H        0.895077156    -0.115421903     2.955714659
 H       -0.518977330    -0.825694339     3.719416780
 H       -0.644566555     0.764342897     2.978044845
 H       -2.516883432    -1.699234534     0.711231914
 H       -2.700230586    -0.186437151     1.623129012
 H       -2.426728842    -1.704805885     2.465356881

