187   

Si        0.000000000     0.000000000     0.000000000
 C        1.865373542     0.000000000     0.000000000
 C       -0.681874813     1.709709758     0.000000000
 C        0.137494603     2.817400022     0.238592471
 C       -0.394121561     4.107055724     0.235325326
 C       -1.755143662     4.318223005     0.000584006
 C       -2.575565266     3.206803207    -0.235571280
 C       -2.047459170     1.918949419    -0.236634264
 C       -2.355903172     5.647834753    -0.012467682
 C       -1.685416515     6.793903319     0.194741043
 C       -2.288760258     8.122474430     0.181138047
 C       -3.650955979     8.328239400    -0.054214738
 C       -4.187015531     9.615450763    -0.058477794
 C       -3.372148062    10.725635731     0.186306606
 C       -2.006333208    10.522529231     0.423575947
 C       -1.472206448     9.236769881     0.415237150
Si       -4.060098570    12.431339551     0.185013275
 C       -3.162767750    13.544149376     1.324743020
 C       -2.555851281    13.147485025     2.451467981
 C       -1.839537836    14.047616198     3.357625769
 C       -1.242787733    13.513563957     4.510073327
 C       -0.554302332    14.323483928     5.398132193
 C       -0.476313984    15.714164620     5.178389919
 C       -1.072560532    16.251369964     4.026665706
 C       -1.726254999    15.419828215     3.124107585
 N        0.239701325    16.501938729     6.115407158
 C       -0.180049208    16.305621861     7.521430946
 C        0.398810114    17.925688445     5.767894776
 C       -1.696062951    16.479162234     7.731117478
 C       -2.066617515    16.920986046     9.156634029
 N       -1.483235139    18.206650820     9.604221308
 C       -1.365065132    19.209055846     8.619612305
 C       -2.496160097    19.502230722     7.826751304
 C       -2.427888974    20.478108263     6.847940220
 C       -1.254833965    21.223244299     6.649431892
 C       -0.147955807    20.951370282     7.455676082
 C       -0.196322271    19.966456147     8.436236028
 C       -0.350582932    18.036960856    10.528331228
 C       -1.239230749    22.242900194     5.599422070
 C       -0.181581865    23.015049620     5.316384552
Si       -0.167294905    24.287649033     4.003361591
 C       -1.834534265    25.014166140     3.730917194
 C       -2.716252183    25.156919151     4.810538963
 C       -3.981717989    25.705099990     4.620265716
 C       -4.393223862    26.135870757     3.351993557
 C       -3.508375869    26.000029302     2.278824257
 C       -2.241681957    25.447290992     2.465087620
 C       -5.729074829    26.703713260     3.202869589
 C       -6.246387673    27.149101804     2.045354447
 C       -7.582235361    27.716965003     1.896123107
 C       -8.467794500    27.853317154     2.968196592
 C       -9.736310857    28.402041495     2.780234201
 C      -10.144510521    28.832762000     1.514074443
 C       -9.257884914    28.697590983     0.437032735
 C       -7.994656413    28.144417051     0.626755114
Si      -11.815135866    29.559171988     1.248764730
 C      -12.651091006    29.967753966     2.865498730
 C      -11.620210425    31.130818386     0.192638477
 C      -12.902042080    28.320578002     0.296057061
 C        1.028952151    25.673334545     4.518638069
 C        0.472369665    23.487157969     2.399983647
 C       -3.918543223    13.141564683    -1.574383413
 C       -5.895911722    12.398363096     0.684000180
 C       -0.657513357    -0.899630807    -1.543419583
 C       -0.606768342    -0.928402396     1.547183095
 H        1.209336862     2.715078801     0.429403108
 H        0.265864852     4.952762693     0.419886957
 H       -3.638423355     3.349253403    -0.421406658
 H       -2.735878688     1.091354472    -0.429877498
 H       -3.431944956     5.660912825    -0.209381557
 H       -0.609374443     6.781685886     0.391493215
 H       -4.307258303     7.480167656    -0.239568829
 H       -5.258158739     9.712955402    -0.254876998
 H       -1.321440914    11.355280976     0.617558212
 H       -0.407929334     9.098753471     0.597029499
 H       -3.167320178    14.602913638     1.022654687
 H       -2.543809691    12.099550053     2.782882791
 H       -1.310292154    12.442922346     4.705331000
 H       -0.068576022    13.886244921     6.266542981
 H       -1.035822891    17.318528566     3.826687917
 H       -2.170232270    15.858272191     2.229585132
 H        1.065633470    18.410912451     6.501813439
 H       -0.545616162    18.496591398     5.754039966
 H        0.888124212    18.009115624     4.782023355
 H       -0.679565955    17.416941864    11.381862300
 H       -0.062012979    19.017578809    10.947183299
 H        0.537206364    17.564547218    10.078577729
 H       -3.424597671    18.960950661     7.993061953
 H       -3.306206964    20.680741762     6.232818251
 H        0.773876645    21.519927293     7.324513827
 H        0.686149740    19.781387665     9.039903494
 H       -2.194707608    22.323657712     5.061269128
 H        0.766912797    22.910286542     5.864291665
 H       -2.446746529    24.842539780     5.824668191
 H       -4.655944946    25.801671313     5.469353740
 H       -3.802700581    26.327328877     1.283473105
 H       -1.594313115    25.367670559     1.587567812
 H       -6.312699829    26.749050273     4.127102043
 H       -5.663013446    27.104024744     1.121034738
 H       -8.172951698    27.529477737     3.964705143
 H      -10.385123636    28.481980965     3.656861898
 H       -9.522095671    29.017400745    -0.574952215
 H       -7.320835290    28.046090574    -0.222233605
 H        0.142598943    15.289497536     7.838336980
 H        0.393895262    17.020514750     8.150402698
 H       -2.091488975    17.207614444     6.993595697
 H       -2.217206745    15.531117069     7.493605841
 H       -3.175943559    17.035543524     9.226439137
 H       -1.794062364    16.123006806     9.880888489
 H        2.263004971    -1.030008595    -0.035985021
 H        2.274588412     0.482999740     0.904638079
 H        2.261868482     0.539223101    -0.879477889
 H      -13.634706204    30.441327559     2.696377509
 H      -12.041662107    30.672612105     3.459882078
 H      -12.817991428    29.065280049     3.479273239
 H      -11.150438702    30.794991325    -0.777406699
 C      -12.957370074    31.814563620    -0.143535745
 C      -10.677721409    32.162083646     0.839329395
 H      -13.920587511    28.801177817     0.225705861
 C      -12.409490814    28.037957538    -1.134485993
 C      -13.057072221    26.980026417     1.037515581
 H        2.034157149    25.181804144     4.662030332
 C        1.180096330    26.768501959     3.448669495
 C        0.622062705    26.327720744     5.851146352
 H        0.518030711    24.313237759     1.633157547
 C        1.884706037    22.891879366     2.541245874
 C       -0.477372610    22.395590449     1.874642612
 H       -4.362387071    14.177721326    -1.529881567
 C       -2.455109982    13.267338905    -2.034590385
 C       -4.703498566    12.329375973    -2.618938583
 H       -6.418619509    11.760321320    -0.085659577
 C       -6.113218620    11.756709657     2.066100539
 C       -6.552583944    13.790293431     0.670824255
 H       -1.782326885    -0.895692596    -1.447305792
 C       -0.294801248    -0.170190158    -2.849649586
 C       -0.198140208    -2.365090712    -1.642864471
 H       -0.100401164    -1.936320536     1.514174442
 C       -0.192491193    -0.228441305     2.854633084
 C       -2.127905922    -1.161269437     1.574082104
 H      -13.660181853    31.158631736    -0.673266844
 H      -12.782460252    32.675278455    -0.805471023
 H      -13.471499964    32.209323410     0.742805889
 H       -9.679367183    31.758401021     1.061081813
 H      -11.077801102    32.584704929     1.770487195
 H      -10.521161441    33.009682253     0.156954575
 H      -12.344629272    28.937461433    -1.759592057
 H      -13.109531660    27.360534919    -1.645041051
 H      -11.430576902    27.538739101    -1.157478095
 H      -13.485367607    27.084112575     2.042720131
 H      -12.107897521    26.433659295     1.135263388
 H      -13.736601568    26.318343880     0.481488512
 H        1.559390145    26.392331526     2.490024088
 H        1.900332865    27.527819572     3.786626431
 H        0.241337468    27.305422588     3.249789933
 H        0.549142022    25.614672991     6.683592135
 H       -0.336004110    26.863962287     5.788557359
 H        1.371987112    27.074191907     6.149276327
 H        2.640277347    23.628106998     2.843516956
 H        2.220302538    22.489214875     1.574509711
 H        1.926496488    22.055246372     3.252868947
 H       -1.499207963    22.756270336     1.692270232
 H       -0.548411754    21.530163848     2.549819506
 H       -0.112274097    22.008316505     0.913061624
 H       -1.838707136    13.884535587    -1.366568672
 H       -2.410298338    13.744326117    -3.023866188
 H       -1.955824993    12.293376960    -2.140939394
 H       -5.779785254    12.276814515    -2.411246945
 H       -4.332754189    11.300013428    -2.728204809
 H       -4.605042534    12.795887905    -3.609903235
 H       -5.723657689    10.731677773     2.138039971
 H       -7.187496019    11.694238468     2.289163139
 H       -5.661797349    12.338870321     2.882666303
 H       -6.507506114    14.284559425    -0.307953449
 H       -6.118006011    14.474663213     1.413070046
 H       -7.619771892    13.704307460     0.921386976
 H       -0.642780564     0.872482429    -2.875138463
 H       -0.767642639    -0.672157343    -3.705755424
 H        0.784267762    -0.163725648    -3.052687244
 H       -0.486435239    -2.971185443    -0.774328523
 H        0.887204475    -2.465699101    -1.775642645
 H       -0.659899680    -2.844252602    -2.518454928
 H        0.892541283    -0.096462046     2.954621822
 H       -0.509838261    -0.828066206     3.719790921
 H       -0.660226852     0.759164481     2.976798106
 H       -2.498996174    -1.722464821     0.707280065
 H       -2.701186085    -0.226025352     1.642233754
 H       -2.401114360    -1.751984493     2.460687476

