187   

Si        0.000000000     0.000000000     0.000000000
 C        1.865072294     0.000000000     0.000000000
 C       -0.677805354     1.711744107     0.000000000
 C        0.089965414     2.787915427     0.457044084
 C       -0.429778927     4.082202473     0.454272154
 C       -1.728343820     4.329525971     0.001474748
 C       -2.498452510     3.249494350    -0.450183872
 C       -1.982505933     1.956510664    -0.448631614
 C       -2.315113804     5.665194595    -0.020396033
 C       -1.690295153     6.784754885     0.382389996
 C       -2.282317131     8.118426720     0.358240430
 C       -3.582922752     8.355611769    -0.096840260
 C       -4.111061757     9.645435552    -0.103444405
 C       -3.344854535    10.728703617     0.341489234
 C       -2.042561303    10.495352976     0.799018970
 C       -1.520699464     9.203844071     0.809866243
Si       -4.045183727    12.428429196     0.331166758
 C       -2.704027649    13.663374932     0.472376807
 C       -2.668094198    14.684248774     1.338194653
 C       -1.572280428    15.653166471     1.418564428
 C       -1.650881440    16.681436328     2.370815263
 C       -0.641830379    17.622751455     2.487682190
 C        0.471557559    17.578416263     1.623990763
 C        0.557035416    16.549294982     0.675062143
 C       -0.446889250    15.589835420     0.593833783
 N        1.467556994    18.572604071     1.798968026
 C        1.011532408    19.960357392     1.580576534
 C        2.782047253    18.280942612     1.207943818
 C        1.082716742    20.486707896     0.136170967
 C        0.146609754    19.770861541    -0.855330348
 N       -1.271100622    20.156193182    -0.783427153
 C       -1.589633183    21.517579708    -0.849031482
 C       -0.808820713    22.380605194    -1.650863337
 C       -1.110237465    23.729907561    -1.726938775
 C       -2.219389426    24.265880220    -1.056131157
 C       -3.007879849    23.405274906    -0.287726214
 C       -2.710448321    22.053008233    -0.183848047
 C       -2.095737812    19.301037871     0.078854898
 C       -2.490449138    25.698981486    -1.171703102
 C       -3.517495918    26.322205150    -0.577797638
Si       -3.853015926    28.112903092    -0.724458296
 C       -2.306920820    29.080687623    -0.965031672
 C       -1.129460998    28.671776163    -0.324259524
 C        0.051444430    29.389503137    -0.492574467
 C        0.084036497    30.538656288    -1.293864023
 C       -1.093471132    30.948334823    -1.925074160
 C       -2.277225089    30.229348240    -1.761793866
 C        1.345701296    31.257135299    -1.439596296
 C        1.513558415    32.366585580    -2.179066987
 C        2.775018124    33.085340512    -2.325054490
 C        3.953055534    32.676858084    -1.694540792
 C        5.137469879    33.394415605    -1.861940127
 C        5.167520063    34.541230183    -2.661402092
 C        3.987079534    34.953116235    -3.294881549
 C        2.807785882    34.232308668    -3.129780107
Si        6.721918972    35.499870315    -2.893024662
 C        8.041028075    34.971942523    -1.684190039
 C        7.374646803    35.236239154    -4.661582165
 C        6.320354342    37.346478735    -2.663920751
 C       -5.043067836    28.396763561    -2.181829132
 C       -4.698995225    28.699426310     0.875447786
 C       -4.952840620    12.725650107    -1.314886061
 C       -5.290899041    12.603402815     1.757230358
 C       -0.647778910    -0.917228259    -1.537759913
 C       -0.626090449    -0.912493651     1.548493582
 H        1.112340704     2.656575982     0.822209629
 H        0.189581337     4.903041128     0.811287117
 H       -3.512746733     3.419950276    -0.806124045
 H       -2.631341337     1.154273984    -0.810989961
 H       -3.340216662     5.706950406    -0.400651024
 H       -0.665668415     6.744964152     0.763133528
 H       -4.196339762     7.529409264    -0.451355469
 H       -5.133977339     9.768764282    -0.469996948
 H       -1.401477443    11.305025831     1.162172970
 H       -0.507577786     9.039969471     1.172463267
 H       -1.889131122    13.504797024    -0.254139342
 H       -3.466234794    14.873749595     2.067777666
 H       -2.511158586    16.734030364     3.038847986
 H       -0.694046234    18.391951814     3.255931255
 H        1.407367231    16.485886943     0.002564861
 H       -0.353646780    14.788446167    -0.140813038
 H        3.506109778    19.035800816     1.562163566
 H        2.797276264    18.272274430     0.107015536
 H        3.132199146    17.298686840     1.573286298
 H       -1.779447181    18.245457888    -0.019043233
 H       -3.147703139    19.348643912    -0.257593209
 H       -2.046757415    19.571060059     1.146307582
 H        0.032309536    21.988153048    -2.214019752
 H       -0.481579551    24.382634005    -2.334494823
 H       -3.876615588    23.796312155     0.243997660
 H       -3.345597631    21.421732917     0.428333440
 H       -1.755819275    26.228604435    -1.795363089
 H       -4.245720183    25.767994985     0.032831875
 H       -1.096680727    27.783090713     0.315297007
 H        0.957587239    29.053122706     0.007544405
 H       -1.095696493    31.837457355    -2.552636081
 H       -3.165716485    30.599412180    -2.280484143
 H        2.185299411    30.823340004    -0.888541699
 H        0.673816724    32.800303913    -2.729919667
 H        3.955737306    31.789507585    -1.064237652
 H        6.026859818    33.025444673    -1.343690646
 H        3.950488559    35.841948973    -3.931172905
 H        1.901541304    34.566825817    -3.631088105
 H       -0.028024146    20.068075848     1.963166964
 H        1.648730459    20.605099049     2.233335367
 H        0.848649546    21.572615248     0.149945527
 H        2.121224729    20.421307396    -0.238956129
 H        0.491454579    19.973531455    -1.898554910
 H        0.223949179    18.667012731    -0.726553552
 H        2.262869734    -1.029001790    -0.056837861
 H        2.276596125     0.465597874     0.912470281
 H        2.259306524     0.557332237    -0.869364721
 H        8.954620007    35.582005901    -1.800219234
 H        8.326673919    33.915001119    -1.826617305
 H        7.693518014    35.090467926    -0.641798181
 H        8.352858140    35.796521710    -4.711404235
 C        7.656682413    33.754368223    -4.970511670
 C        6.447697061    35.799009564    -5.753764402
 H        5.551594172    37.595539332    -3.452235226
 C        5.697607527    37.647341767    -1.288588317
 C        7.532271534    38.270323050    -2.879082311
 H       -5.250621534    29.505345717    -2.205738477
 C       -4.420270796    27.995330413    -3.530976119
 C       -6.387818967    27.666219239    -2.017060744
 H       -5.641017113    28.086311322     0.972296547
 C       -3.832313595    28.443586582     2.121656644
 C       -5.096785608    30.185246291     0.839512205
 H       -5.789965733    11.969814631    -1.349245589
 C       -5.573120666    14.130208040    -1.413964835
 C       -4.048633587    12.487808156    -2.537289380
 H       -5.604334184    13.687556617     1.762751157
 C       -6.555691953    11.745534293     1.575763433
 C       -4.664892352    12.276026123     3.125252503
 H       -1.772616291    -0.926271752    -1.443245731
 C       -0.290788626    -0.194593944    -2.849340833
 C       -0.172966405    -2.378661186    -1.625882099
 H       -0.152429265    -1.935847188     1.515088716
 C       -0.189776425    -0.226653760     2.856061878
 C       -2.154471629    -1.093889309     1.572162493
 H        8.380915069    33.295627260    -4.285153871
 H        8.082560388    33.654280683    -5.979210330
 H        6.748244197    33.135013044    -4.957758565
 H        6.251748180    36.873599524    -5.649209847
 H        5.479074475    35.281521162    -5.798744679
 H        6.910368754    35.667241669    -6.742835024
 H        4.789105948    37.061980224    -1.086431875
 H        5.400167093    38.704184398    -1.232263189
 H        6.392748909    37.477153117    -0.455798992
 H        7.988379246    38.165054528    -3.871940186
 H        8.322009116    38.122379481    -2.130627177
 H        7.221932151    39.321972616    -2.793740420
 H       -3.478609478    28.516882953    -3.751219092
 H       -5.107678040    28.240139435    -4.352632879
 H       -4.223276228    26.915602330    -3.604779395
 H       -6.937602732    27.962790727    -1.114927776
 H       -6.280473973    26.572429061    -2.000980514
 H       -7.046614966    27.896580217    -2.866756083
 H       -3.550307207    27.389396368     2.248055819
 H       -4.384160313    28.726425125     3.029184481
 H       -2.907267403    29.037986947     2.127302453
 H       -5.792672909    30.430608099     0.027168086
 H       -4.231487309    30.858116465     0.753428477
 H       -5.606672066    30.461122444     1.773877033
 H       -6.302432595    14.341183772    -0.621362019
 H       -6.114670912    14.235879840    -2.365092854
 H       -4.821747885    14.932909703    -1.397992255
 H       -3.599153884    11.484840731    -2.558163692
 H       -3.233162301    13.219617115    -2.616461467
 H       -4.635063168    12.579298660    -3.462803641
 H       -7.114861793    11.980004070     0.661123354
 H       -7.249840967    11.919368371     2.411074851
 H       -6.344805902    10.666767156     1.575437586
 H       -3.774615993    12.875990145     3.357944729
 H       -4.380061505    11.217941957     3.220367235
 H       -5.388875188    12.472621554     3.928524478
 H       -0.648378034     0.844454164    -2.884002297
 H       -0.756622413    -0.708436178    -3.702220000
 H        0.788654201    -0.178986727    -3.050584553
 H       -0.454563661    -2.981035874    -0.752564491
 H        0.913303683    -2.469032449    -1.758537838
 H       -0.630112428    -2.869524186    -2.497405597
 H        0.898880716    -0.129831214     2.956075493
 H       -0.525987159    -0.816619025     3.720860812
 H       -0.626654948     0.774876557     2.979134349
 H       -2.538699074    -1.664636031     0.717322416
 H       -2.697552990    -0.138861815     1.611165288
 H       -2.452655205    -1.652138283     2.471585766

