187   

Si        0.000000000     0.000000000     0.000000000
 C        1.865390966     0.000000000     0.000000000
 C       -0.681462167     1.709664105     0.000000000
 C        0.128289695     2.811248283    -0.293673003
 C       -0.401031720     4.101798386    -0.290165480
 C       -1.750580220     4.320119260    -0.001404019
 C       -2.561651907     3.214501264     0.288223525
 C       -2.035844309     1.925663400     0.288698358
 C       -2.348179160     5.651023689     0.014043160
 C       -1.684939176     6.791464459    -0.241520262
 C       -2.283557808     8.121966797    -0.225803250
 C       -1.471104691     9.227713727    -0.512332227
 C       -1.997854481    10.515577966    -0.509168202
 C       -3.351747367    10.728494766    -0.212725622
 C       -4.163660383     9.627526171     0.072901673
 C       -3.633611044     8.337181390     0.062796889
Si       -4.011881573    12.441130033    -0.217943873
 C       -5.528163037    12.724872153     0.761043386
 C       -5.857247806    12.041276606     1.865097322
 C       -7.078433701    12.286145381     2.633996297
 C       -7.329132448    11.512535088     3.777589746
 C       -8.472347684    11.710834023     4.534408997
 C       -9.387815396    12.721429327     4.179737559
 C       -9.143185143    13.494196337     3.035263534
 C       -8.009179808    13.259527202     2.265827529
 N      -10.542150581    12.880805326     4.989993766
 C      -10.252986828    13.155220283     6.416994203
 C      -11.601148271    13.745037784     4.441150323
 C       -9.028164827    14.040588447     6.713093201
 C       -9.066494884    15.387297127     5.969599123
 N       -8.021620989    16.334610162     6.389868594
 C       -6.675716503    15.993359462     6.163300684
 C       -6.311479817    15.046693373     5.183265596
 C       -4.978705878    14.725104452     4.976471907
 C       -3.954033255    15.381868379     5.673843680
 C       -4.314864673    16.348425671     6.616498262
 C       -5.646153101    16.656126207     6.862132172
 C       -8.327791878    16.986423152     7.675869508
 C       -2.560310433    15.009385599     5.423313228
 C       -1.506160089    15.571025997     6.032739459
Si        0.235368937    15.102624597     5.716880098
 C        0.430695630    14.515418650     3.983515095
 C        0.081481552    15.365844635     2.927009218
 C        0.219586580    14.946039063     1.605084779
 C        0.706108085    13.668936648     1.308317856
 C        1.063750142    12.823404012     2.365343724
 C        0.937755718    13.245162471     3.686774401
 C        0.867352850    13.186961472    -0.058586998
 C        0.562378150    13.897170056    -1.157697636
 C        0.723738540    13.414927872    -2.524144556
 C        1.220922329    12.143081489    -2.818557892
 C        1.359233947    11.721476805    -4.140685914
 C        0.985071512    12.558605610    -5.196070405
 C        0.479932585    13.832831746    -4.902636044
 C        0.353853310    14.255392682    -3.582700189
Si        1.159007471    12.022570614    -6.947882769
 C        1.622651810    10.220041715    -7.070224123
 C       -0.515128732    12.332143643    -7.800687470
 C        2.497059254    13.054609353    -7.821479136
 C        1.363978192    16.598471088     6.036630648
 C        0.707387873    13.725061530     6.946312616
 C       -2.744497823    13.516338048     0.720051349
 C       -4.226228953    13.058382484    -1.996297357
 C       -0.612202594    -0.923295293    -1.548081394
 C       -0.655467328    -0.905839239     1.540846775
 H        1.190741091     2.703414499    -0.528357403
 H        0.251429358     4.942496405    -0.518124442
 H       -3.615745687     3.362439331     0.515686362
 H       -2.717028506     1.102967728     0.523805204
 H       -3.414975449     5.670585328     0.255684216
 H       -0.618575972     6.772213682    -0.484475410
 H       -0.418269805     9.079964572    -0.743275276
 H       -1.316300131    11.340923582    -0.744514844
 H       -5.227773766     9.736342773     0.304278971
 H       -4.285928632     7.494877613     0.284357688
 H       -6.163953807    13.541366612     0.383944457
 H       -5.239418170    11.230124032     2.273166125
 H       -6.618602299    10.739944687     4.073541970
 H       -8.669931384    11.088375331     5.403579320
 H       -9.831451947    14.277454451     2.732801849
 H       -7.843810905    13.864512952     1.373246748
 H      -12.512283626    13.621080216     5.052208332
 H      -11.856382147    13.405090058     3.421218136
 H      -11.346880394    14.815075176     4.404981459
 H       -9.415870252    17.114645125     7.793547455
 H       -7.885387691    17.999717250     7.679675295
 H       -7.949015124    16.428583479     8.547724882
 H       -7.071811535    14.541168236     4.589571720
 H       -4.728707268    13.962585410     4.234553042
 H       -3.541505435    16.877282311     7.174798882
 H       -5.878345859    17.415439479     7.600840609
 H       -2.456205488    14.220432131     4.663832276
 H       -1.636284856    16.356009166     6.791834687
 H       -0.319852871    16.369893196     3.099439515
 H       -0.054952133    15.625669975     0.800161744
 H        1.445739897    11.825789015     2.156351442
 H        1.245901523    12.545153494     4.468501702
 H        1.268085292    12.172320285    -0.141979030
 H        0.163543718    14.912329631    -1.073120019
 H        1.510473904    11.468490092    -2.014823614
 H        1.758384547    10.717693431    -4.310758403
 H        0.169022327    14.527799339    -5.687811823
 H       -0.037183559    15.249379481    -3.374055570
 H      -11.157400371    13.592941603     6.891959394
 H      -10.102271098    12.159713197     6.901647010
 H       -8.961625825    14.212005696     7.803622785
 H       -8.096118317    13.499451036     6.446167120
 H       -8.959619239    15.228833563     4.869787410
 H      -10.055940697    15.877339840     6.109392975
 H        2.262760068    -1.029632285     0.047357517
 H        2.261520004     0.549080674     0.873527985
 H        2.274978140     0.472983574    -0.909631120
 H        1.690180046     9.897096022    -8.124531028
 H        0.866948037     9.581742609    -6.576622043
 H        2.598885677    10.015483440    -6.597003373
 H       -0.687938753    13.446236777    -7.744282125
 C       -0.532767705    11.925844314    -9.284541316
 C       -1.681774054    11.638097181    -7.074238656
 H        2.586955878    12.616697362    -8.857930860
 C        2.142496038    14.545228754    -7.966706763
 C        3.870311122    12.940124771    -7.134165492
 H        1.219702495    16.860139365     7.125429779
 C        2.853275008    16.280743191     5.813749643
 C        0.989442937    17.836996746     5.203197114
 H        1.723930138    13.356179290     6.626028398
 C        0.821204219    14.217382351     8.400628804
 C       -0.274907840    12.539969524     6.905901044
 H       -1.784303374    13.481508436     0.130224838
 C       -3.172098359    14.986237300     0.861309307
 C       -2.481490405    12.927033785     2.117560112
 H       -4.512654383    14.147044313    -1.920196922
 C       -2.935296192    12.962878823    -2.828165164
 C       -5.352713951    12.317030084    -2.739482261
 H       -0.118973869    -1.937485829    -1.513180034
 C       -2.136354323    -1.135926624    -1.576594252
 C       -0.186906270    -0.230029025    -2.855494926
 H       -1.780072786    -0.909331055     1.442530813
 C       -0.187290289    -2.368639322     1.639180853
 C       -0.300046800    -0.176139413     2.848997006
 H        0.232812788    12.434350835    -9.884495145
 H       -1.500947944    12.190123335    -9.734416404
 H       -0.411078461    10.844656706    -9.433706279
 H       -1.769099455    11.927629971    -6.016745964
 H       -1.620931674    10.542173892    -7.111990886
 H       -2.636033839    11.910914069    -7.546890973
 H        1.202064446    14.720169668    -8.504342005
 H        2.924439490    15.061879779    -8.542515180
 H        2.082023050    15.065019004    -7.000446856
 H        4.239156330    11.908632694    -7.064409673
 H        3.877182256    13.364844916    -6.120099320
 H        4.625571947    13.498041901    -7.706243022
 H        3.223805511    15.460512522     6.442133675
 H        3.467103048    17.158822375     6.061072016
 H        3.085547098    16.029273547     4.769012591
 H       -0.067384026    18.123079305     5.292576641
 H        1.215036580    17.713889724     4.134793546
 H        1.572910171    18.705908064     5.539693156
 H        1.584347715    14.993653737     8.539248351
 H        1.111295390    13.384034300     9.056941806
 H       -0.127814239    14.603104242     8.797760403
 H       -0.400128418    12.100199690     5.907264059
 H       -1.277789928    12.809361650     7.270123521
 H        0.083042302    11.730147614     7.556548504
 H       -3.302212128    15.495118783    -0.100878615
 H       -2.401051866    15.547419505     1.411229402
 H       -4.099939703    15.110788298     1.438180257
 H       -2.081917607    11.903641747     2.090534739
 H       -3.371392662    12.924509184     2.761858762
 H       -1.722094502    13.529071667     2.640503306
 H       -2.086419248    13.507524252    -2.391123666
 H       -3.094336887    13.396115764    -3.825692209
 H       -2.607728616    11.926335308    -2.995040200
 H       -6.326690078    12.383951168    -2.237216332
 H       -5.132045852    11.251003346    -2.894416868
 H       -5.491254423    12.749115281    -3.740666180
 H       -2.513780027    -1.702814260    -0.716225365
 H       -2.418089617    -1.712066888    -2.470035665
 H       -2.697786693    -0.192529996    -1.632509258
 H        0.899770334    -0.111315995    -2.953329946
 H       -0.642800898     0.762878406    -2.979727588
 H       -0.509618205    -0.826745866    -3.720637957
 H       -0.467063705    -2.974373859     0.767632432
 H       -0.650663414    -2.853033063     2.511019730
 H        0.897963455    -2.462545923     1.777423465
 H       -0.653488704     0.864693662     2.874771907
 H        0.778468649    -0.164177497     3.054644347
 H       -0.772394326    -0.681825722     3.703166096

