187   

Si        0.000000000     0.000000000     0.000000000
 C        1.864978021     0.000000000     0.000000000
 C       -0.687930168     1.707222772     0.000000000
 C        0.096285335     2.806735865     0.362636658
 C       -0.441104414     4.094179870     0.357137541
 C       -1.772819555     4.310638627    -0.005586658
 C       -2.558748246     3.206982184    -0.364026385
 C       -2.025642888     1.921396490    -0.359389225
 C       -2.381327271     5.636285194    -0.027328991
 C       -1.750389890     6.779421262     0.290745427
 C       -2.372389110     8.099490157     0.264416221
 C       -1.606119171     9.217069860     0.618933875
 C       -2.160790284    10.495196599     0.607304350
 C       -3.493044054    10.686726116     0.224559658
 C       -4.260085385     9.571200471    -0.133213340
 C       -3.705960631     8.293029037    -0.108367932
Si       -4.269982894    12.354287172     0.193140474
 C       -5.442049563    12.507879733    -1.202586440
 C       -5.305282663    11.848446276    -2.361113793
 C       -6.230431605    11.956749254    -3.489443192
 C       -5.969714850    11.209388456    -4.648024442
 C       -6.810819139    11.273038281    -5.745562595
 C       -7.931103027    12.132918614    -5.738558167
 C       -8.193677681    12.882668724    -4.577356052
 C       -7.363812873    12.772676288    -3.467898725
 N       -8.769879642    12.178344471    -6.867259989
 C       -8.109971837    12.103009539    -8.182839582
 C       -9.885500290    13.137504185    -6.837879568
 C       -7.059242250    13.208657453    -8.413230067
 C       -6.814898223    13.461519903    -9.912142122
 N       -7.587618981    14.590463955   -10.482199633
 C       -8.992947600    14.455749561   -10.301343625
 C       -9.628702527    13.389942353   -10.968463335
 C      -10.994447011    13.202667795   -10.834703343
 C      -11.771357551    14.081896398   -10.064130778
 C      -11.138673587    15.150280839    -9.425197099
 C       -9.766574481    15.346361935    -9.544848122
 C       -7.023545967    15.900322516   -10.109889585
 C      -13.211815539    13.838815978    -9.955151741
 C      -14.047132808    14.610837266    -9.248745579
Si      -15.849613457    14.362066283    -9.073346234
 C      -16.296614507    14.428917145    -7.290581971
 C      -15.322913755    14.196637185    -6.311153740
 C      -15.657649253    14.246415323    -4.960258384
 C      -16.971480753    14.517467586    -4.556417473
 C      -17.941732241    14.741713373    -5.537581646
 C      -17.610038279    14.696832384    -6.890945662
 C      -17.273189687    14.559097583    -3.129288480
 C      -18.487340787    14.811395699    -2.611506051
 C      -18.790398629    14.853321689    -1.184769140
 C      -17.823323428    14.629721960    -0.201389442
 C      -18.157593499    14.679541589     1.151878099
 C      -19.467947857    14.960821948     1.551086313
 C      -20.439724450    15.185729534     0.566590579
 C      -20.104375624    15.129631601    -0.783281266
Si      -19.924557072    15.030038996     3.333226394
 C      -18.414627057    15.112986786     4.425306273
 C      -21.022147795    16.560322114     3.611287346
 C      -20.926754606    13.477333362     3.789081139
 C      -16.752398145    15.745200547   -10.015447789
 C      -16.384875136    12.682392178    -9.785083866
 C       -5.225012666    12.617896944     1.816974160
 C       -2.942841433    13.708319065     0.039093268
 C       -0.648044322    -0.910523574    -1.541858026
 C       -0.619054195    -0.921399066     1.546331864
 H        1.144538298     2.699428979     0.654436324
 H        0.190760259     4.933943078     0.640336304
 H       -3.598984822     3.353596435    -0.648994745
 H       -2.687793571     1.099946096    -0.647402079
 H       -3.432644438     5.649274178    -0.331651368
 H       -0.700457080     6.771531600     0.595856242
 H       -0.565924959     9.088633278     0.911307551
 H       -1.516709337    11.327961126     0.901640871
 H       -5.307788761     9.661526451    -0.441389894
 H       -4.324553410     7.441889351    -0.387502027
 H       -6.276470071    13.203943431    -1.034214096
 H       -4.473905876    11.153888220    -2.552520108
 H       -5.096690041    10.556077579    -4.682324340
 H       -6.604590414    10.655001815    -6.614759596
 H       -9.046372282    13.552070026    -4.529829286
 H       -7.598384414    13.352113262    -2.574031918
 H      -10.498472866    13.024139301    -7.752236750
 H       -9.564392983    14.189464373    -6.777550530
 H      -10.544110544    12.906749135    -5.981540740
 H       -5.989425180    15.957930100   -10.493582585
 H       -7.003165600    16.098535492    -9.027094376
 H       -7.595813155    16.701709826   -10.609100667
 H       -9.040634946    12.723102793   -11.595891336
 H      -11.472404580    12.367481617   -11.347232209
 H      -11.722192631    15.850707794    -8.825443555
 H       -9.304228780    16.185094026    -9.032402878
 H      -13.544997511    12.952698210   -10.510501148
 H      -13.679766453    15.501159536    -8.709900091
 H      -14.282192185    13.973723368    -6.568449482
 H      -14.887775120    14.068077696    -4.211622022
 H      -18.969955011    14.953681780    -5.250285757
 H      -18.410633157    14.881116886    -7.612548966
 H      -16.418374657    14.364496822    -2.474922831
 H      -19.342170049    15.005237012    -3.266102412
 H      -16.795338813    14.412434214    -0.485657800
 H      -17.358172146    14.494919046     1.874903068
 H      -21.479940130    15.409938663     0.819345847
 H      -20.873321530    15.304955653    -1.533224086
 H       -7.642220350    11.097798583    -8.283829704
 H       -8.900817627    12.144184631    -8.967498088
 H       -7.382881843    14.143017217    -7.916063459
 H       -6.113490274    12.932316722    -7.910417552
 H       -5.735656368    13.663163940   -10.095071508
 H       -7.055365638    12.553236156   -10.508903694
 H        2.262441100    -1.029760028    -0.043538263
 H        2.275814625     0.476940743     0.907010231
 H        2.260210703     0.545933356    -0.876014277
 H      -18.697681811    15.205118832     5.489174545
 H      -17.789881897    15.988621663     4.171449671
 H      -17.786771963    14.210289161     4.325573867
 H      -21.931415966    16.411050366     2.959077042
 C      -21.505448521    16.713944388     5.064331369
 C      -20.335851381    17.865734706     3.170011444
 H      -21.126809219    13.557917217     4.896643543
 C      -22.282395068    13.384774088     3.066061615
 C      -20.144494636    12.175190750     3.538191333
 H      -17.854575291    15.534325291    -9.894497781
 C      -16.469335916    17.140121288    -9.429884791
 C      -16.432179701    15.757163885   -11.520323889
 H      -15.995333992    12.654821497   -10.843883459
 C      -15.771888746    11.497953927    -9.015620657
 C      -17.912354724    12.501137250    -9.835815550
 H       -5.676958901    13.649284372     1.748594011
 C       -6.370854370    11.605190267     1.992309132
 C       -4.322504496    12.572367954     3.062327967
 H       -2.262651846    13.583847016     0.930430352
 C       -2.095742550    13.554238131    -1.236971233
 C       -3.524186900    15.133055695     0.081384826
 H       -1.772875586    -0.919074513    -1.447507999
 C       -0.290637870    -0.181374960    -2.849682382
 C       -0.173734521    -2.371651963    -1.636457174
 H       -0.131872298    -1.938449615     1.512024482
 C       -0.192274088    -0.231593007     2.855081997
 C       -2.144709698    -1.123344715     1.570107138
 H      -22.066514842    15.844425553     5.430416441
 H      -22.186124602    17.574088174     5.144259264
 H      -20.686262223    16.904918312     5.770233147
 H      -20.011249486    17.851720999     2.119660674
 H      -19.460821841    18.119404061     3.783034605
 H      -21.034432780    18.709375823     3.263986540
 H      -22.940779494    14.240428959     3.262150428
 H      -22.829304116    12.493577283     3.407177526
 H      -22.178747398    13.280527905     1.976770325
 H      -19.195423039    12.123154181     4.087103552
 H      -19.923161467    12.008245634     2.474131920
 H      -20.737349311    11.309944781     3.867994694
 H      -16.712985400    17.222104810    -8.361165848
 H      -17.082945394    17.894900684    -9.942352172
 H      -15.424627981    17.454806564    -9.557804552
 H      -16.685973558    14.817460846   -12.027607174
 H      -15.375367302    15.974384438   -11.731797424
 H      -17.013538615    16.543748145   -12.022592609
 H      -14.675026515    11.526761935    -8.961532414
 H      -16.032238986    10.551460104    -9.509988018
 H      -16.148544734    11.419669445    -7.985238478
 H      -18.419744112    13.249331790   -10.457962096
 H      -18.379510585    12.516927294    -8.840910156
 H      -18.159765121    11.522287430   -10.272211461
 H       -7.091266256    11.613149438     1.162912384
 H       -6.944028728    11.837785741     2.900871494
 H       -6.012972116    10.572282571     2.111492726
 H       -3.530143793    13.331618511     3.054749051
 H       -3.845615741    11.592693639     3.209698303
 H       -4.919314018    12.760737499     3.966495385
 H       -1.598031279    12.577973256    -1.316937630
 H       -1.297818950    14.309635140    -1.254469164
 H       -2.680571871    13.701357627    -2.156760830
 H       -4.078306984    15.350663175     1.003303805
 H       -4.187314679    15.348978434    -0.768017062
 H       -2.711486474    15.871978934     0.031174496
 H       -0.649027430     0.857648290    -2.878971082
 H       -0.756284004    -0.690872617    -3.705241528
 H        0.788762964    -0.164312280    -3.050567736
 H       -0.457025821    -2.977929440    -0.766384377
 H        0.912668912    -2.461891627    -1.767795197
 H       -0.629771156    -2.858081359    -2.511019538
 H        0.894995129    -0.120769933     2.955773558
 H       -0.521437894    -0.826670261     3.719018346
 H       -0.641677704     0.764297084     2.978902940
 H       -2.522754824    -1.691134011     0.710600455
 H       -2.699977380    -0.175854690     1.619394680
 H       -2.434034927    -1.693821472     2.464760347

