187   

Si        0.000000000     0.000000000     0.000000000
 C        1.865137693     0.000000000     0.000000000
 C       -0.669591797     1.715082062     0.000000000
 C        0.068449935     2.762933063    -0.561268391
 C       -0.434466678     4.063447873    -0.563627876
 C       -1.687169061     4.346233242    -0.012193380
 C       -2.428072636     3.294613771     0.542825372
 C       -1.928815557     1.994691897     0.545986967
 C       -2.252798477     5.691202424     0.007342108
 C       -1.647155668     6.782537847    -0.490741685
 C       -2.210826271     8.128229174    -0.472287929
 C       -3.462988443     8.413741709     0.078371724
 C       -3.963352074     9.715617049     0.074523341
 C       -3.228042933    10.757736799    -0.498407791
 C       -1.973615008    10.473818020    -1.055380463
 C       -1.470971329     9.175886347    -1.037078200
Si       -3.856411111    12.486816943    -0.521674356
 C       -3.375791354    13.354111002    -2.057583479
 C       -3.194597983    12.740948725    -3.235298279
 C       -2.810168291    13.423541655    -4.470897463
 C       -2.652085114    12.665406578    -5.640521748
 C       -2.289546242    13.259808776    -6.837169425
 C       -2.117606855    14.660293519    -6.916577999
 C       -2.277531121    15.422446576    -5.742783021
 C       -2.596525352    14.802524704    -4.541557409
 N       -1.750553941    15.243028956    -8.136446044
 C       -2.282893634    14.645644113    -9.371659126
 C       -1.602955891    16.703238374    -8.178628901
 C       -3.809480806    14.445370152    -9.407434538
 C       -4.616037688    15.728227802    -9.674572989
 N       -4.495137733    16.309145199   -11.027046628
 C       -3.378111844    17.163228346   -11.214723987
 C       -3.330280253    18.340437641   -10.440923926
 C       -2.267451896    19.218588925   -10.574593695
 C       -1.240259186    18.972973243   -11.498796225
 C       -1.308435582    17.819550306   -12.283662284
 C       -2.368133586    16.927481992   -12.158864069
 C       -4.758867405    15.346619576   -12.107488790
 C       -0.139065437    19.934021516   -11.600096338
 C        0.892300987    19.803213876   -12.443922226
Si        2.292560530    20.966515457   -12.615415980
 C        2.536687962    21.385724919   -14.388952879
 C        1.494898220    21.211005265   -15.305796503
 C        1.676921215    21.528002275   -16.651452756
 C        2.896545518    22.035967604   -17.107186742
 C        3.936109794    22.216195231   -16.184749400
 C        3.759863600    21.896431359   -14.841121840
 C        3.131791471    22.381280767   -18.505304755
 C        2.222940053    22.256986165   -19.487315168
 C        2.457696756    22.602148943   -20.885521350
 C        3.678027760    23.105682044   -21.343255467
 C        3.859026831    23.422632348   -22.689474913
 C        2.818768815    23.248102484   -23.607467514
 C        1.593484029    22.743733560   -23.150755895
 C        1.417632931    22.423134804   -21.807592807
Si        3.041699401    23.661677835   -25.387463728
 C        4.584971848    24.670625259   -25.669767591
 C        3.167504933    22.054173879   -26.399080984
 C        1.508673499    24.626160798   -25.973418038
 C        1.986504883    22.565713589   -11.633781800
 C        3.856871759    20.121506737   -11.937994499
 C       -5.752966598    12.506824780    -0.371051497
 C       -3.117358474    13.424934207     0.959250144
 C       -0.630621027    -0.902742167    -1.552438715
 C       -0.647812116    -0.925892140     1.532367997
 H        1.054553077     2.604086786    -1.006648877
 H        0.161590808     4.861460622    -1.002735351
 H       -3.406650599     3.492388882     0.976235210
 H       -2.553952779     1.215511430     0.990599841
 H       -3.240967798     5.765445830     0.470450855
 H       -0.658620365     6.707495606    -0.953668876
 H       -4.058922394     7.618106715     0.521164795
 H       -4.944379915     9.878337016     0.528787728
 H       -1.355484412    11.251125136    -1.518059989
 H       -0.493154607     8.974959953    -1.470914018
 H       -3.257783268    14.442849301    -1.955271068
 H       -3.314682269    11.655131730    -3.362610770
 H       -2.802881325    11.585375313    -5.606397065
 H       -2.133748936    12.641446611    -7.716001519
 H       -2.151106354    16.499661258    -5.759762529
 H       -2.698431268    15.413360331    -3.643403740
 H       -1.254773546    17.019939633    -9.179699340
 H       -0.822225966    17.010818242    -7.458779211
 H       -2.533334464    17.249803327    -7.955205582
 H       -5.731773029    14.859033792   -11.921194041
 H       -3.992670522    14.563984679   -12.220801870
 H       -4.847672432    15.894203917   -13.063160528
 H       -4.140092551    18.558849158    -9.747385792
 H       -2.239869958    20.121527042    -9.963936689
 H       -0.523981638    17.608973059   -13.012452160
 H       -2.393683697    16.042285239   -12.787406620
 H       -0.242930654    20.784748522   -10.914285032
 H        0.969575922    18.931788167   -13.116313764
 H        0.516053182    20.822753785   -15.005784388
 H        0.853472979    21.378248431   -17.347428620
 H        4.893472201    22.610731113   -16.519679093
 H        4.606343113    22.056516448   -14.167712329
 H        4.133833562    22.764366126   -18.719559944
 H        1.220596730    21.874525386   -19.272864174
 H        4.502431500    23.254863102   -20.648325818
 H        4.836329188    23.812087100   -22.987825085
 H        0.744671191    22.587080224   -23.822441865
 H        0.459137957    22.031358793   -21.472336010
 H       -1.957187627    15.265288438   -10.238553700
 H       -1.777415230    13.658759909    -9.505871125
 H       -4.054609095    13.678722130   -10.165812791
 H       -4.150093439    14.014191618    -8.441846431
 H       -5.701362781    15.514349756    -9.520690997
 H       -4.346907353    16.502193864    -8.921758481
 H        2.263465035    -1.028938918     0.052644488
 H        2.258740395     0.554278857     0.871767995
 H        2.277164366     0.469995056    -0.909874191
 H        4.689286148    24.949483284   -26.733615357
 H        5.495031467    24.116211043   -25.380922754
 H        4.559208319    25.606709223   -25.082733169
 H        3.364991999    22.377694315   -27.461903370
 C        4.338322295    21.162597023   -25.946167577
 C        1.876997402    21.215528364   -26.388616748
 H        0.630129631    23.934664705   -25.817255690
 C        1.259601959    25.898160420   -25.142913112
 C        1.552879271    25.001579392   -27.465307246
 H        1.738137821    22.242003078   -10.581660782
 C        3.216517633    23.488456971   -11.570155088
 C        0.793548718    23.369773637   -12.182710931
 H        4.684993701    20.882986476   -12.025952137
 C        3.730377881    19.723561163   -10.456984844
 C        4.260669257    18.883591833   -12.758255913
 H       -5.995886486    11.993573283     0.603721449
 C       -6.341309152    13.928316815    -0.316968272
 C       -6.437924347    11.727893201    -1.508339828
 H       -3.534200955    14.471773913     0.904899106
 C       -3.516323198    12.820574509     2.316739593
 C       -1.582666344    13.517659977     0.884447829
 H       -0.165317602    -1.929932614    -1.522682195
 C       -2.160534939    -1.070931440    -1.576286978
 C       -0.188293912    -0.216083526    -2.857547743
 H       -1.773127054    -0.925334320     1.443149099
 C       -0.184634359    -2.392176207     1.603475836
 C       -0.277527418    -0.220220483     2.849506349
 H        5.314135936    21.662128017   -26.000813006
 H        4.410182343    20.277147616   -26.593953240
 H        4.215107881    20.784272638   -24.921127500
 H        1.004384372    21.753052552   -26.780694331
 H        1.620813154    20.839014177   -25.388287771
 H        2.001327479    20.327890686   -27.026053673
 H        1.161968780    25.700866414   -24.065699551
 H        0.318419825    26.373451456   -25.454150731
 H        2.044941584    26.654951824   -25.270474828
 H        1.658832945    24.133888739   -28.129180730
 H        2.359111899    25.707244967   -27.705743819
 H        0.614819536    25.497112916   -27.755258920
 H        4.088387331    23.020840588   -11.095243659
 H        2.985066971    24.381798179   -10.971674284
 H        3.527458634    23.856531790   -12.558177292
 H       -0.142442916    22.796380671   -12.224616059
 H        0.977741851    23.769654309   -13.190625236
 H        0.595317986    24.238392362   -11.539090066
 H        3.527816987    20.573902444    -9.793207319
 H        4.671915006    19.277440802   -10.105482669
 H        2.949349969    18.969901621   -10.280769928
 H        4.408672103    19.097556670   -13.826278709
 H        3.534501368    18.062877045   -12.681365475
 H        5.216713050    18.483862294   -12.390736274
 H       -5.959908335    14.526500350     0.520316197
 H       -7.431857674    13.878577745    -0.185939028
 H       -6.169492270    14.496756186    -1.241749906
 H       -6.113935312    10.680305485    -1.578456249
 H       -6.280066324    12.187488467    -2.495004072
 H       -7.525015438    11.704373622    -1.349303676
 H       -4.600522830    12.807003173     2.486056737
 H       -3.085429460    13.415706454     3.134919940
 H       -3.143331607    11.795584412     2.455402969
 H       -1.218418816    13.988869973    -0.038765775
 H       -1.091315404    12.537966129     0.973565249
 H       -1.200763604    14.128892754     1.714347182
 H       -2.548383075    -1.647273304    -0.726776818
 H       -2.464726574    -1.616972939    -2.481073426
 H       -2.695834472    -0.111077038    -1.603892528
 H        0.901272191    -0.130766108    -2.957879070
 H       -0.614833776     0.790451701    -2.976022710
 H       -0.531431387    -0.798739655    -3.724514921
 H       -0.475957297    -2.983347568     0.725723586
 H       -0.641273051    -2.888001099     2.472451265
 H        0.901546785    -2.492847914     1.729177955
 H       -0.619525394     0.823584236     2.895205644
 H        0.802705883    -0.221882156     3.047508083
 H       -0.748101736    -0.735538922     3.698890820

