187   

Si        0.000000000     0.000000000     0.000000000
 C        1.865008646     0.000000000     0.000000000
 C       -0.689694778     1.706359572     0.000000000
 C        0.105373318     2.812011076     0.317274669
 C       -0.433911830     4.098653347     0.312360536
 C       -1.778432368     4.308081795    -0.004203550
 C       -2.574968149     3.198471575    -0.318113179
 C       -2.039635658     1.913809376    -0.315118322
 C       -2.389098415     5.632855098    -0.023182577
 C       -1.747521864     6.780590256     0.254504425
 C       -2.370280402     8.100342527     0.231977482
 C       -1.591225575     9.222380386     0.541598710
 C       -2.145862876    10.500574458     0.531969818
 C       -3.491816578    10.687708586     0.199191892
 C       -4.271876154     9.567255358    -0.112413934
 C       -3.717374045     8.289276094    -0.091350638
Si       -4.270704663    12.353183982     0.171920817
 C       -5.488729088    12.487229026    -1.185742544
 C       -5.382494176    11.808903461    -2.336498223
 C       -6.340760485    11.896360096    -3.438896333
 C       -6.111337006    11.131097716    -4.592044497
 C       -6.986394163    11.176367288    -5.664577724
 C       -8.112502654    12.023298641    -5.625486948
 C       -8.351291236    12.780740575    -4.468513539
 C       -7.486999568    12.691897988    -3.382973787
 N       -8.978299247    12.034603786    -6.746931383
 C       -8.336629413    12.297254404    -8.050782514
 C      -10.244299814    12.768187609    -6.578551665
 C       -7.804589228    13.731572576    -8.233095943
 C       -6.299306602    13.840056702    -7.919037686
 N       -5.843113410    15.173016225    -7.465955746
 C       -6.197238565    15.409103961    -6.092071291
 C       -5.230051134    15.043853447    -5.142895391
 C       -5.483696400    15.234695309    -3.793181643
 C       -6.705533544    15.773975430    -3.362368297
 C       -7.656614089    16.143626309    -4.316646336
 C       -7.402507120    15.982144953    -5.675303793
 C       -6.234160524    16.265327044    -8.374702517
 C       -6.923505511    15.955383117    -1.924416524
 C       -8.045774865    16.458987490    -1.396592245
Si       -8.376132650    16.708938634     0.383550934
 C       -8.983209842    18.415664185     0.683393068
 C       -8.728728822    19.428751101    -0.246888702
 C       -9.188202460    20.725953839    -0.022485083
 C       -9.900178114    21.040916717     1.138219967
 C      -10.148154346    20.024969664     2.071076055
 C       -9.695323609    18.727238531     1.848174710
 C      -10.399623798    22.384046046     1.414242574
 C      -10.230624444    23.443459975     0.604917081
 C      -10.729258158    24.787057911     0.879236716
 C      -11.445570131    25.104085850     2.036160127
 C      -11.903781663    26.402692269     2.258009775
 C      -11.649345783    27.415354418     1.327894657
 C      -10.930772397    27.099985171     0.166594986
 C      -10.479684328    25.801793279    -0.054628798
Si      -12.246879390    29.134403121     1.605287580
 C      -12.835518583    29.382420551     3.357861645
 C      -10.819314291    30.331538985     1.214759322
 C      -13.689272667    29.502928782     0.418927335
 C       -9.668097745    15.419069369     0.915169692
 C       -6.793875911    16.441227959     1.405542424
 C       -5.173261133    12.684038410     1.811338015
 C       -2.929344173    13.681413733    -0.077481340
 C       -0.650782996    -0.908129963    -1.541936065
 C       -0.613338268    -0.924125502     1.547208797
 H        1.163757749     2.710239314     0.572415677
 H        0.206473116     4.943215877     0.559887306
 H       -3.625081860     3.339710582    -0.567335072
 H       -2.709759731     1.087450841    -0.568667975
 H       -3.450840324     5.640927181    -0.288840053
 H       -0.686951819     6.777181384     0.520720504
 H       -0.540450426     9.097837923     0.795837112
 H       -1.489831007    11.336453912     0.788658811
 H       -5.330935471     9.653556415    -0.380522191
 H       -4.346150178     7.434418919    -0.334223549
 H       -6.323823327    13.180971055    -1.002942783
 H       -4.553472710    11.116390839    -2.543284056
 H       -5.233861214    10.485704996    -4.646175577
 H       -6.810859064    10.550062901    -6.535404187
 H       -9.202015976    13.452318429    -4.407090125
 H       -7.699552821    13.284720117    -2.489985827
 H      -10.883719974    12.593036412    -7.460378669
 H      -10.125116868    13.855276406    -6.446345882
 H      -10.782440033    12.361327994    -5.703119630
 H       -5.780051124    16.076408479    -9.362503135
 H       -5.814392705    17.212592341    -7.992478940
 H       -7.317421660    16.396253959    -8.508846932
 H       -4.289071767    14.610448634    -5.480340560
 H       -4.728903789    14.944255735    -3.060377624
 H       -8.608276092    16.573303729    -4.003877920
 H       -8.144595023    16.294135202    -6.403608272
 H       -6.064923578    15.643057088    -1.314035241
 H       -8.891524319    16.758373304    -2.038833421
 H       -8.172229146    19.242266208    -1.171357391
 H       -8.983302479    21.496538463    -0.763589802
 H      -10.701264488    20.249791015     2.981004299
 H       -9.920136818    17.974995902     2.609148593
 H      -10.943271739    22.484954159     2.358064039
 H       -9.686580197    23.341430922    -0.338815931
 H      -11.653441060    24.334827430     2.777641945
 H      -12.459557950    26.589594887     3.180990174
 H      -10.701870835    27.850518764    -0.595325553
 H       -9.925054941    25.575796851    -0.963440800
 H       -7.521071404    11.555121802    -8.199530161
 H       -9.091717757    12.071596477    -8.838944050
 H       -7.995778961    14.073329302    -9.265697787
 H       -8.373025588    14.422957631    -7.581684369
 H       -6.016906774    13.102914655    -7.129602057
 H       -5.700266395    13.581107035    -8.819940002
 H        2.262285295    -1.029834236    -0.043980449
 H        2.275312897     0.476276263     0.907654863
 H        2.260862089     0.546160784    -0.875561943
 H      -13.150628805    30.427492280     3.527793426
 H      -12.031161866    29.156896749     4.081500900
 H      -13.695884463    28.732979565     3.596440490
 H      -10.550796932    30.150319991     0.133330236
 C      -11.203722653    31.814412009     1.362623151
 C       -9.566295672    30.050715141     2.063858711
 H      -14.046660346    30.539098581     0.686768346
 C      -13.283228386    29.507757277    -1.065629997
 C      -14.867242908    28.528770398     0.604080713
 H       -9.828322586    15.574653972     2.020857632
 C      -11.020831028    15.614326184     0.207929646
 C       -9.192682072    13.971017332     0.699269568
 H       -6.346389747    15.472267144     1.035891057
 C       -5.764672027    17.563779644     1.181428493
 C       -7.051033004    16.297610400     2.915310175
 H       -5.636413150    13.710285240     1.713145242
 C       -6.306643630    11.675146748     2.068697868
 C       -4.233293486    12.703779015     3.028611045
 H       -2.186858636    13.526728433     0.757955497
 C       -2.188667006    13.510413157    -1.416307314
 C       -3.451342861    15.124332770     0.020032434
 H       -1.775368093    -0.917687173    -1.444464503
 C       -0.297990722    -0.175970488    -2.849338521
 C       -0.175068392    -2.368463573    -1.640776921
 H       -0.118082801    -1.937385156     1.513889884
 C       -0.191939357    -0.229125931     2.854949727
 C       -2.137173878    -1.139091762     1.572307937
 H      -12.050488014    32.109379539     0.729498369
 H      -10.359461709    32.452400799     1.062943482
 H      -11.446219018    32.093112381     2.396677657
 H       -9.198552307    29.019114657     1.966646985
 H       -9.719133605    30.247845189     3.133206111
 H       -8.740362343    30.702074763     1.744176271
 H      -12.490644895    30.229689695    -1.299573278
 H      -14.145134289    29.787155393    -1.689087738
 H      -12.956804093    28.520235319    -1.421069222
 H      -15.274568215    28.524590906     1.623273804
 H      -14.608798678    27.491883225     0.344979235
 H      -15.698394551    28.812659504    -0.057299436
 H      -11.445801597    16.618026248     0.347302219
 H      -11.762835653    14.911378018     0.612638888
 H      -10.971466563    15.421256761    -0.872707686
 H       -8.266234641    13.730675254     1.239431455
 H       -9.035255159    13.725320784    -0.361022139
 H       -9.952837933    13.267109751     1.066620388
 H       -5.464588212    17.678799752     0.130543943
 H       -4.845411857    17.355800143     1.747088975
 H       -6.118815171    18.544830036     1.529932748
 H       -7.703755361    15.452232372     3.168058941
 H       -7.482733008    17.202201005     3.365309948
 H       -6.102463228    16.118728472     3.442819519
 H       -7.045706563    11.630049337     1.256585037
 H       -6.859556970    11.951901104     2.977392788
 H       -5.937558757    10.652988283     2.235758045
 H       -3.447829785    13.467282719     2.960836461
 H       -3.743026258    11.736295341     3.207741915
 H       -4.803248553    12.929719725     3.941446076
 H       -1.716663044    12.524962837    -1.531463834
 H       -1.378556657    14.248483269    -1.497688230
 H       -2.839148316    13.666003972    -2.289541496
 H       -3.939348766    15.346653275     0.978354956
 H       -4.154870834    15.381127974    -0.784608842
 H       -2.615391256    15.833350926    -0.068073915
 H       -0.656970870     0.862928343    -2.875202446
 H       -0.766509395    -0.683798652    -3.704344952
 H        0.780683764    -0.158080080    -3.053908604
 H       -0.453985859    -2.976625396    -0.770607128
 H        0.910928728    -2.457051313    -1.776664794
 H       -0.633976024    -2.854032764    -2.514335819
 H        0.894280244    -0.107370574     2.954576484
 H       -0.514359394    -0.826720535     3.719696161
 H       -0.650864223     0.762452407     2.978378414
 H       -2.512360307    -1.703745816     0.709497743
 H       -2.700082623    -0.196698100     1.629964942
 H       -2.419722143    -1.718601879     2.463342767

