187   

Si        0.000000000     0.000000000     0.000000000
 C        1.865415064     0.000000000     0.000000000
 C       -0.668847786     1.714305851     0.000000000
 C        0.124954797     2.788699484     0.414633394
 C       -0.383887991     4.086605537     0.413793814
 C       -1.693071814     4.340355551    -0.003616118
 C       -2.488437351     3.263008235    -0.415083271
 C       -1.985362034     1.964857447    -0.408608898
 C       -2.263140183     5.682246395    -0.019654051
 C       -1.603613253     6.790699564     0.357000142
 C       -2.168546729     8.134442482     0.342982565
 C       -3.476560003     8.396219720    -0.072943344
 C       -3.977382296     9.696970600    -0.070633676
 C       -3.192899279    10.755257698     0.399360556
 C       -1.883409820    10.495648730     0.823529965
 C       -1.372941266     9.201863010     0.776771610
Si       -3.837538003    12.475279423     0.409332072
 C       -3.008960179    13.512973753     1.665187159
 C       -2.499952888    13.078035740     2.826649408
 C       -1.843854640    13.951262941     3.802338307
 C       -1.340564382    13.407251182     4.992195506
 C       -0.713265028    14.205146120     5.938513052
 C       -0.609774986    15.597364356     5.743726306
 C       -1.117967525    16.145350581     4.547464108
 C       -1.702787814    15.326718533     3.593314052
 N        0.016109445    16.440223590     6.674891708
 C        0.388350451    15.913134901     7.991597820
 C       -0.430423126    17.842920835     6.707394114
 C       -0.795056414    15.755180129     8.964411396
 C       -0.310405177    15.223986839    10.328316810
 N       -0.927923822    13.945997103    10.734754261
 C       -0.760356574    12.870630260     9.834046669
 C        0.493876642    12.677097147     9.218258076
 C        0.685943806    11.630234389     8.330698167
 C       -0.330639179    10.697727160     8.082306514
 C       -1.561890222    10.872521818     8.719550355
 C       -1.783085474    11.940600907     9.579685645
 C       -2.277497170    14.131751417    11.295528567
 C       -0.083541866     9.607444762     7.136447781
 C       -0.991599743     8.670840557     6.835380091
Si       -0.783294180     7.276405951     5.674838263
 C       -2.226138732     7.272428365     4.535575967
 C       -2.953001533     8.452374449     4.334350406
 C       -4.046983774     8.462513811     3.474696116
 C       -4.445114360     7.295752612     2.810039701
 C       -3.716028058     6.120892662     3.012620478
 C       -2.610568079     6.109186398     3.861965578
 C       -5.598273070     7.360539933     1.920145143
 C       -6.080560888     6.326208855     1.210918727
 C       -7.235903251     6.407706124     0.324606137
 C       -7.953898301     7.591349874     0.133571562
 C       -9.053425389     7.627778503    -0.722983565
 C       -9.460349551     6.477707292    -1.406448258
 C       -8.740177841     5.290271030    -1.218896392
 C       -7.639635218     5.258122086    -0.367025112
Si      -10.909794053     6.513467028    -2.539458487
 C      -11.960890408     8.029399342    -2.261363432
 C      -10.288663246     6.516761829    -4.339106997
 C      -11.940261183     4.938552502    -2.256538324
 C        0.788342450     7.458660700     4.619327737
 C       -0.697680599     5.641328465     6.636482858
 C       -3.540743747    13.244525711    -1.304384188
 C       -5.710813007    12.451143448     0.749502006
 C       -0.656464574    -0.917250945    -1.532872313
 C       -0.625173888    -0.897726525     1.557916617
 H        1.157957257     2.652791687     0.746044931
 H        0.253996593     4.905710455     0.741936279
 H       -3.510838058     3.439919546    -0.744109648
 H       -2.651863877     1.162932196    -0.736649764
 H       -3.298004846     5.740826347    -0.369917175
 H       -0.570234987     6.733324542     0.711697989
 H       -4.115832521     7.582247364    -0.414362542
 H       -4.998230063     9.843301451    -0.433553128
 H       -1.222746105    11.288064506     1.190820526
 H       -0.345842802     9.018523704     1.087940861
 H       -2.966323575    14.579702741     1.394133312
 H       -2.533254914    12.024224286     3.136950017
 H       -1.433822073    12.335270111     5.181128901
 H       -0.326064234    13.739496089     6.842883377
 H       -1.038831600    17.209286333     4.351070831
 H       -2.069144283    15.776604369     2.669258814
 H       -0.011484257    18.366727025     7.581448077
 H       -1.527999674    17.944206531     6.736750256
 H       -0.050285101    18.362626426     5.808329981
 H       -2.255625731    14.940322099    12.045811310
 H       -2.580889693    13.213868546    11.830482119
 H       -3.041656668    14.377462819    10.540609531
 H        1.318505464    13.348658467     9.440090911
 H        1.652316189    11.520442330     7.837249244
 H       -2.374456192    10.166587340     8.538112822
 H       -2.761164034    12.047944554    10.037698800
 H        0.920254253     9.631079165     6.694954573
 H       -1.987812367     8.676461770     7.312114206
 H       -2.686584181     9.393027486     4.827595471
 H       -4.593046606     9.391705599     3.316100028
 H       -3.999107548     5.203714900     2.498871660
 H       -2.071079270     5.164696330     3.973869130
 H       -6.069288029     8.346988704     1.856422189
 H       -5.614093636     5.339481198     1.273049240
 H       -7.660469038     8.500267834     0.656547172
 H       -9.576879608     8.581682588    -0.831167651
 H       -9.012928343     4.361586137    -1.727520735
 H       -7.091970714     4.326839349    -0.235347957
 H        0.906383924    14.934683568     7.849277482
 H        1.152928850    16.599589318     8.425044608
 H       -1.320057716    16.717621528     9.088621127
 H       -1.547679053    15.072201245     8.521768036
 H        0.794682977    15.081748582    10.335682812
 H       -0.507894880    15.975237928    11.124960283
 H        2.263664849    -1.029109779    -0.051167756
 H        2.276083049     0.470573881     0.910195059
 H        2.259448972     0.552586775    -0.872478103
 H      -12.853938954     8.019271532    -2.911460787
 H      -11.404597954     8.958654381    -2.475221731
 H      -12.312858094     8.079968200    -1.214912567
 H      -11.211466234     6.603534691    -4.982227659
 C       -9.377827823     7.720125562    -4.644948980
 C       -9.549976217     5.226109950    -4.736120050
 H      -11.254520909     4.073511723    -2.492952160
 C      -12.399254169     4.789209184    -0.794737791
 C      -13.166372945     4.832860145    -3.180819753
 H        1.654131443     7.486016044     5.340475245
 C        1.001454201     6.275176394     3.657653895
 C        0.794640321     8.766419900     3.806991672
 H       -0.547173657     4.833058592     5.862469413
 C        0.483532503     5.582024592     7.621031927
 C       -2.000597886     5.332749569     7.395590850
 H       -3.968450103    14.286984966    -1.259177552
 C       -2.042368352    13.356506116    -1.638949305
 C       -4.250540846    12.485063582    -2.438894217
 H       -6.178773950    11.907120305    -0.121433438
 C       -6.067880915    11.686668590     2.036881854
 C       -6.328159411    13.859215244     0.816087890
 H       -1.780942654    -0.921388024    -1.433617428
 C       -0.302173704    -0.198085368    -2.847094131
 C       -0.187516328    -2.380707640    -1.619731289
 H       -0.141221478    -1.916459173     1.542935993
 C       -0.202611417    -0.186193687     2.856691535
 C       -2.151846553    -1.093620713     1.578000548
 H       -9.861158002     8.689389568    -4.467582883
 H       -9.086281660     7.711857329    -5.705094868
 H       -8.441429977     7.704443510    -4.068591089
 H      -10.164680573     4.322979693    -4.633097509
 H       -8.623903777     5.071328840    -4.164587876
 H       -9.251727187     5.274542689    -5.793679883
 H      -11.567749277     4.800617756    -0.075474384
 H      -12.911340658     3.826291738    -0.656673426
 H      -13.112555264     5.565431624    -0.487300603
 H      -12.910551594     4.862980959    -4.247857491
 H      -13.912691913     5.616243081    -2.993488706
 H      -13.679449944     3.874340789    -3.015009001
 H        1.125259295     5.313685568     4.172337510
 H        1.917675853     6.428001115     3.069818953
 H        0.182812385     6.161836315     2.931269787
 H        0.757972795     9.670000304     4.431178404
 H       -0.043135407     8.828999051     3.095145345
 H        1.715822237     8.839582340     3.213093710
 H        1.460567128     5.708552520     7.137498057
 H        0.511255388     4.601162077     8.116903640
 H        0.410122074     6.329697601     8.423607239
 H       -2.888358805     5.316263159     6.747231884
 H       -2.198620269     6.040241658     8.212170591
 H       -1.940678479     4.337313678     7.858059121
 H       -1.472198458    13.936326211    -0.900230402
 H       -1.907451775    13.866645650    -2.602980221
 H       -1.553674713    12.376332807    -1.738967619
 H       -5.341584164    12.453115059    -2.326213023
 H       -3.894523734    11.450189214    -2.549510961
 H       -4.056182273    12.979041115    -3.401762120
 H       -5.733749988    10.639653607     2.022052824
 H       -7.158074879    11.663796672     2.173241787
 H       -5.654266942    12.156158394     2.941144813
 H       -6.178048991    14.446141929    -0.098796968
 H       -5.947653108    14.452521191     1.659579703
 H       -7.415923351    13.787578238     0.957797954
 H       -0.655636556     0.842498212    -2.881345576
 H       -0.774137989    -0.711005332    -3.697120463
 H        0.776429746    -0.187079125    -3.053030747
 H       -0.467929534    -2.979869477    -0.743838393
 H        0.897938707    -2.475225061    -1.756237890
 H       -0.649818092    -2.871698561    -2.488416678
 H        0.884675882    -0.078819025     2.960976900
 H       -0.538667506    -0.764931540     3.728994246
 H       -0.648647860     0.813716239     2.960114147
 H       -2.526735575    -1.679313858     0.729095483
 H       -2.703977426    -0.143410134     1.602134362
 H       -2.448256365    -1.642854692     2.483514641

