187   

Si        0.000000000     0.000000000     0.000000000
 C        1.865255981     0.000000000     0.000000000
 C       -0.678233868     1.710610158     0.000000000
 C        0.109653488     2.795971110    -0.396290767
 C       -0.412464652     4.088935590    -0.393208466
 C       -1.730927363     4.326034557     0.003914094
 C       -2.520768466     3.237120977     0.396033357
 C       -2.003534644     1.944809328     0.390494464
 C       -2.318538435     5.660510830     0.022899631
 C       -1.670322223     6.782749718    -0.331633495
 C       -2.255144139     8.118114417    -0.313666785
 C       -3.574940317     8.345331879     0.085158843
 C       -4.102490780     9.634516072     0.090489059
 C       -3.330762605    10.716990683    -0.346136584
 C       -2.012081854    10.492162335    -0.759089192
 C       -1.479006134     9.205711355    -0.734039061
Si       -4.035960665    12.410788968    -0.334748782
 C       -3.360277332    13.480336435    -1.652993092
 C       -2.924107754    13.065930787    -2.849953085
 C       -2.390296872    13.972355878    -3.872162840
 C       -1.957773146    13.441298269    -5.096734862
 C       -1.447033347    14.267060909    -6.087757835
 C       -1.372541838    15.653307803    -5.875488822
 C       -1.810916086    16.192763516    -4.661456605
 C       -2.316835075    15.353525950    -3.674371397
 N       -0.832771291    16.439873911    -6.947121635
 C        0.643345959    16.440831827    -6.952976966
 C       -1.411464811    17.791519868    -7.054819783
 C        1.293242771    17.220906124    -5.793181204
 C        2.753666596    16.794130230    -5.557822673
 N        2.936393863    15.790509464    -4.492053323
 C        2.460899239    14.487759849    -4.741162032
 C        2.620866792    13.923673979    -6.024615236
 C        2.160673525    12.644484249    -6.290754716
 C        1.630140069    11.840833458    -5.272794365
 C        1.511615172    12.385180231    -3.990893796
 C        1.907292031    13.689263338    -3.723549544
 C        2.676331159    16.340304717    -3.149991197
 C        1.157152872    10.496326888    -5.605071422
 C        0.634793236     9.652400825    -4.706747443
Si        0.021725189     7.963251345    -5.031718665
 C       -1.653869931     7.846627886    -4.285751767
 C       -2.474062779     8.981977007    -4.253653909
 C       -3.745825114     8.913026503    -3.692936141
 C       -4.230801172     7.707412418    -3.169599263
 C       -3.412547976     6.575460915    -3.210940010
 C       -2.134285263     6.642562071    -3.763430768
 C       -5.569341454     7.683696483    -2.592261186
 C       -6.149992425     6.600226781    -2.050140685
 C       -7.490017351     6.585449428    -1.474598773
 C       -8.304816566     7.719903614    -1.435411353
 C       -9.580724246     7.662337026    -0.875586219
 C      -10.065887546     6.468150660    -0.333533857
 C       -9.249409402     5.329561986    -0.368974326
 C       -7.978692837     5.388558305    -0.934061232
Si      -11.747183717     6.375461304     0.408888545
 C      -12.463597679     8.073466782     0.698870775
 C      -12.903667531     5.414436314    -0.758071677
 C      -11.620946594     5.424835863     2.053464478
 C       -0.113418682     7.608409219    -6.893208775
 C        1.207194404     6.703476767    -4.244724026
 C       -5.926623884    12.324693226    -0.543412469
 C       -3.636310718    13.215380710     1.341849644
 C       -0.620588988    -0.902967435    -1.556871667
 C       -0.654143141    -0.919511872     1.532762017
 H        1.148484884     2.672353078    -0.713916570
 H        0.222162139     4.916572714    -0.706149360
 H       -3.550765660     3.400514859     0.708098221
 H       -2.666459393     1.133999474     0.704323336
 H       -3.360463108     5.699510481     0.354207500
 H       -0.627054831     6.744122138    -0.661473838
 H       -4.204404881     7.514088758     0.399815942
 H       -5.135515086     9.750332257     0.430870814
 H       -1.369129630    11.303958092    -1.113865778
 H       -0.452367308     9.044358548    -1.058324010
 H       -3.353835703    14.550155704    -1.387835922
 H       -2.918323126    12.009630886    -3.152638144
 H       -2.010183822    12.365650716    -5.271964813
 H       -1.103918332    13.852581177    -7.034911526
 H       -1.760377122    17.262573026    -4.483437481
 H       -2.653245818    15.790188260    -2.733984346
 H       -1.099665125    18.226247716    -8.020230573
 H       -1.122687632    18.484805122    -6.251647523
 H       -2.512534008    17.712041766    -7.070042852
 H        3.102524304    17.354110137    -3.071269398
 H        3.194527877    15.714918552    -2.399814789
 H        1.605924443    16.393358124    -2.891308237
 H        3.102229846    14.492901611    -6.815204294
 H        2.245937487    12.248660968    -7.303080386
 H        1.086469433    11.787949884    -3.181691087
 H        1.764245662    14.081876817    -2.721761460
 H        1.271729159    10.243624664    -6.666094959
 H        0.543591673     9.941889463    -3.644985914
 H       -2.143553539     9.947512424    -4.650145508
 H       -4.366368413     9.807327285    -3.658527800
 H       -3.763892244     5.628850700    -2.803472441
 H       -1.537486467     5.726458078    -3.761596309
 H       -6.099771723     8.640524648    -2.628736822
 H       -5.622767937     5.642653174    -2.015341025
 H       -7.948441389     8.663906775    -1.844872424
 H      -10.173562568     8.581057615    -0.876279033
 H       -9.576402039     4.369685503     0.040279009
 H       -7.359849187     4.493343444    -0.954570940
 H        0.969422721    15.374341505    -6.934937618
 H        0.974078781    16.856043083    -7.930053957
 H        1.247769536    18.304835729    -5.998874360
 H        0.703090781    17.068557687    -4.867921353
 H        3.208806107    16.407740545    -6.496793304
 H        3.367431921    17.683523039    -5.282105559
 H        2.263157041    -1.029348964     0.049255652
 H        2.260063657     0.551046280     0.873072739
 H        2.275577212     0.472041430    -0.909662256
 H      -13.453953784     8.010050326     1.184116831
 H      -12.591339752     8.630236450    -0.245945039
 H      -11.808763510     8.671952700     1.357860438
 H      -13.920781239     5.442146442    -0.270321737
 C      -13.021135575     6.072329186    -2.145222860
 C      -12.504977765     3.939496843    -0.944554660
 H      -11.234492588     4.398027580     1.787686006
 C      -10.618086705     6.066807162     3.029426056
 C      -12.973057381     5.248750356     2.767111250
 H        0.912100267     7.796134890    -7.324031094
 C       -0.500668207     6.150822177    -7.200583400
 C       -1.109638081     8.545550131    -7.600904456
 H        0.730227574     5.691344012    -4.395577294
 C        2.592643814     6.678810634    -4.914419482
 C        1.389348927     6.924155947    -2.732374435
 H       -6.311994166    11.736930045     0.339555351
 C       -6.601217397    13.707658021    -0.521656872
 C       -6.341769859    11.586279007    -1.828625584
 H       -4.115977419    14.235751086     1.324693286
 C       -4.212536796    12.436321062     2.536773429
 C       -2.122066448    13.401762747     1.548147643
 H       -0.134321354    -1.920631173    -1.537733160
 C       -2.146650594    -1.103242256    -1.579686206
 C       -0.196563138    -0.194876981    -2.856929990
 H       -1.778563136    -0.927257917     1.433036127
 C       -0.180561731    -2.381398314     1.620143936
 C       -0.302927204    -0.198760982     2.846989018
 H      -13.382107930     7.108155528    -2.107987563
 H      -13.740754644     5.518559181    -2.765126736
 H      -12.071952434     6.070517131    -2.700370593
 H      -12.482766826     3.371739838    -0.005865812
 H      -11.528573475     3.820334699    -1.435095549
 H      -13.235500925     3.432554406    -1.591836231
 H       -9.610083998     6.177779884     2.604866830
 H      -10.506896491     5.437457957     3.923897793
 H      -10.937863330     7.055397944     3.384549820
 H      -13.724050624     4.733359191     2.154556144
 H      -13.408639712     6.200142204     3.100055837
 H      -12.842654859     4.637368072     3.671940656
 H        0.219285121     5.417520637    -6.815303187
 H       -0.545080037     5.994422370    -8.288033828
 H       -1.493643707     5.880835113    -6.812903521
 H       -0.878446645     9.611686121    -7.470210584
 H       -2.147146825     8.389847796    -7.270508798
 H       -1.100823528     8.357132470    -8.683376513
 H        2.555950133     6.440365462    -5.985008732
 H        3.221790355     5.905838709    -4.450420602
 H        3.138968648     7.626307103    -4.804625201
 H        0.437253744     6.933360410    -2.181658106
 H        1.920425639     7.857379184    -2.499144188
 H        1.991823027     6.110957273    -2.303336268
 H       -6.411974714    14.272194552     0.399997438
 H       -7.692742629    13.594314109    -0.591003538
 H       -6.304901711    14.341654447    -1.368964115
 H       -5.938861020    10.564873862    -1.888180927
 H       -6.038742843    12.117566440    -2.742373462
 H       -7.435954319    11.493477396    -1.873653165
 H       -5.306097236    12.346859854     2.511928508
 H       -3.968127009    12.952457697     3.476357437
 H       -3.796196050    11.422315397     2.627854778
 H       -1.643599106    13.997765774     0.759116993
 H       -1.581148515    12.446638682     1.617469664
 H       -1.932422841    13.930511527     2.492835301
 H       -2.521265062    -1.690087457    -0.731441704
 H       -2.439764595    -1.653239007    -2.485817045
 H       -2.701640627    -0.154800639    -1.605062333
 H        0.890637149    -0.084258477    -2.958733940
 H       -0.644983166     0.803313372    -2.965137428
 H       -0.528655691    -0.777258430    -3.728311884
 H       -0.455609400    -2.980758415     0.742705093
 H       -0.644533467    -2.874709818     2.486661711
 H        0.904706022    -2.472242102     1.760552989
 H       -0.659897301     0.840605608     2.880704076
 H        0.775483314    -0.184277514     3.053643418
 H       -0.773879463    -0.713054778     3.696790771

