187   

Si        0.000000000     0.000000000     0.000000000
 C        1.865182664     0.000000000     0.000000000
 C       -0.675878589     1.711266122     0.000000000
 C        0.116180976     2.793648644    -0.395670735
 C       -0.401802218     4.088286842    -0.393511525
 C       -1.716356098     4.331217899     0.012238138
 C       -2.509592961     3.245397409     0.406246327
 C       -1.999167011     1.950428398     0.394021143
 C       -2.299139635     5.667438592     0.030503651
 C       -1.653029737     6.788248917    -0.332078511
 C       -2.243686697     8.121187100    -0.310759552
 C       -3.559549817     8.351244859     0.097119575
 C       -4.090142143     9.640862318     0.104137753
 C       -3.328486762    10.719625259    -0.351061802
 C       -2.010874433    10.491592118    -0.772596180
 C       -1.471669756     9.209481633    -0.737378372
Si       -3.981269327    12.437823255    -0.362419279
 C       -3.356050023    13.329171422    -1.831937108
 C       -3.065490330    12.718070268    -2.989280938
 C       -2.564428029    13.404517783    -4.179886498
 C       -2.294861266    12.657851884    -5.336764877
 C       -1.819296159    13.267744241    -6.486044023
 C       -1.650397948    14.668063211    -6.535222518
 C       -1.924340735    15.417077773    -5.375793161
 C       -2.350416121    14.783854761    -4.215293179
 N       -1.166242387    15.283869973    -7.706809328
 C       -1.523437824    14.652132238    -8.988959845
 C       -1.238251542    16.754422966    -7.760972222
 C       -3.039795174    14.521795928    -9.213947989
 C       -3.383118569    14.044995204   -10.635079198
 N       -2.732626511    12.793028527   -11.069267222
 C       -2.702811279    11.751518214   -10.111358760
 C       -3.922468713    11.345206441    -9.532957618
 C       -3.942894666    10.329656339    -8.590696413
 C       -2.762024792     9.677457292    -8.203197266
 C       -1.559232662    10.073749404    -8.792043070
 C       -1.521922199    11.089494089    -9.740852676
 C       -1.501501326    13.004619575   -11.846961880
 C       -2.833685225     8.609238297    -7.202922486
 C       -1.766409736     7.926945062    -6.766905981
Si       -1.789719103     6.586975830    -5.524301687
 C       -3.127415371     6.746389392    -4.275847903
 C       -3.685814047     7.992862250    -3.976110751
 C       -4.700473596     8.099577179    -3.026477756
 C       -5.176273213     6.968484806    -2.357284194
 C       -4.609004645     5.722720508    -2.653359354
 C       -3.590621111     5.612347536    -3.596091176
 C       -6.236386356     7.035380825    -1.356656676
 C       -6.856459862     8.168691790    -0.987834278
 C       -7.916745127     8.260039824     0.008120621
 C       -8.406160602     7.147475480     0.696276880
 C       -9.422996403     7.286014304     1.641342440
 C       -9.969137159     8.542741605     1.919557170
 C       -9.476567836     9.661009776     1.232719341
 C       -8.462167773     9.519571574     0.291456967
Si      -11.310714405     8.748954723     3.161897727
 C      -12.038346171     7.108706600     3.670408237
 C      -10.605341372     9.613902290     4.704530856
 C      -12.656902951     9.861712836     2.405183001
 C       -1.939111937     4.916905694    -6.421356467
 C       -0.133241960     6.641054927    -4.587917899
 C       -5.884617276    12.422506931    -0.442070305
 C       -3.423350264    13.321699529     1.222453219
 C       -0.621311769    -0.893602912    -1.562321221
 C       -0.656392485    -0.921635811     1.529966983
 H        1.154589787     2.666925866    -0.713377107
 H        0.236453995     4.914675735    -0.701937984
 H       -3.536824604     3.413491661     0.724172082
 H       -2.665145834     1.141934436     0.706779051
 H       -3.339228374     5.710531199     0.367882755
 H       -0.616152810     6.750618764    -0.678110661
 H       -4.186031082     7.520980736     0.422112523
 H       -5.116776309     9.758010448     0.464250768
 H       -1.369271847    11.300808997    -1.137523087
 H       -0.440746197     9.053085840    -1.049127854
 H       -3.247299273    14.415415009    -1.710301695
 H       -3.172703378    11.631827664    -3.132198753
 H       -2.447064796    11.576050464    -5.333192048
 H       -1.587984230    12.652707481    -7.354401799
 H       -1.798733873    16.494221973    -5.365207681
 H       -2.536037352    15.386213629    -3.325173737
 H       -0.838857533    17.115599148    -8.723076205
 H       -0.590751031    17.176900616    -6.970711535
 H       -2.258915116    17.150700675    -7.637950276
 H       -1.721615461    13.684138560   -12.688769446
 H       -1.183609415    12.043712591   -12.291514186
 H       -0.660948567    13.421911752   -11.271966848
 H       -4.847590931    11.830945085    -9.832498075
 H       -4.893652272    10.032891002    -8.146026676
 H       -0.626002890     9.585114362    -8.508011286
 H       -0.566878426    11.370837154   -10.173051498
 H       -3.851860351     8.421113051    -6.836762625
 H       -0.760764690     8.136281782    -7.167197551
 H       -3.346382809     8.914286571    -4.460485333
 H       -5.111761810     9.082763505    -2.801317156
 H       -4.959038542     4.830169406    -2.138808841
 H       -3.177329979     4.615475565    -3.774795510
 H       -6.508375213     6.076320558    -0.908111562
 H       -6.581299869     9.124380019    -1.448396248
 H       -7.997827962     6.158567066     0.497469294
 H       -9.769147505     6.379950442     2.145652126
 H       -9.866354274    10.667580705     1.408640207
 H       -8.091299627    10.400308491    -0.232474779
 H       -1.057523359    15.236225270    -9.812712436
 H       -1.042187452    13.644781106    -9.015668960
 H       -3.465234536    13.818693713    -8.466844582
 H       -3.538830341    15.489348127    -9.021376667
 H       -4.485342281    13.875954272   -10.705372936
 H       -3.150067757    14.845064399   -11.371244994
 H        2.262820090    -1.029084948     0.056481219
 H        2.260161468     0.556872664     0.869343335
 H        2.275781017     0.465569398    -0.912856425
 H      -12.867987254     7.245953765     4.386844088
 H      -11.286583607     6.459454696     4.152498295
 H      -12.441722140     6.566458264     2.795973287
 H      -11.457834637     9.666611689     5.441610669
 C       -9.459761962     8.815882301     5.354032441
 C      -10.115326843    11.048675921     4.438642545
 H      -12.153505051    10.847027429     2.181179159
 C      -13.206925645     9.302982504     1.080431659
 C      -13.832095144    10.139328829     3.359290662
 H       -1.831422214     4.123712559    -5.625486825
 C       -3.312604282     4.736824201    -7.091780764
 C       -0.835510997     4.689279636    -7.469358680
 H        0.676429235     6.556356372    -5.367178891
 C        0.052614857     7.973467989    -3.840687320
 C        0.031586853     5.477478563    -3.596243960
 H       -6.224098019    11.677237559     0.334586561
 C       -6.528406561    13.778726487    -0.103444132
 C       -6.398580213    11.963111545    -1.818888287
 H       -3.844157337    14.366634269     1.164586353
 C       -3.965387571    12.655599002     2.499596658
 C       -1.891425608    13.430758310     1.325809230
 H       -0.127944029    -1.907781005    -1.554759336
 C       -2.146075729    -1.103921672    -1.580443278
 C       -0.208878222    -0.169453032    -2.857413604
 H       -1.780900001    -0.925594734     1.430606247
 C       -0.187201493    -2.385198676     1.612641416
 C       -0.302385551    -0.206182642     2.846292504
 H       -9.749399400     7.800123308     5.652354786
 H       -9.121700431     9.320379980     6.270673816
 H       -8.575946398     8.732739586     4.705094212
 H      -10.895493142    11.709258976     4.040023702
 H       -9.256777158    11.085608377     3.753064470
 H       -9.776215802    11.508710169     5.378430269
 H      -12.427093931     9.133378666     0.324166839
 H      -13.915691748    10.015963683     0.635603546
 H      -13.755405164     8.360128329     1.206666089
 H      -13.524431541    10.607549215     4.303240389
 H      -14.406521515     9.236380614     3.605222985
 H      -14.541459875    10.835267528     2.888118611
 H       -4.154362719     4.825620517    -6.390475384
 H       -3.387498636     3.734649963    -7.536542964
 H       -3.486915624     5.450712213    -7.909313138
 H        0.178293178     4.734623713    -7.051764218
 H       -0.886662156     5.400877156    -8.305121775
 H       -0.939806793     3.688529808    -7.912824914
 H        0.030688347     8.851009265    -4.501975010
 H        1.027977043     7.991959685    -3.335807812
 H       -0.707363421     8.131095217    -3.058759871
 H        0.025880352     4.490858958    -4.077112499
 H       -0.743990308     5.467800062    -2.813806603
 H        0.996498548     5.559223470    -3.076286392
 H       -6.281319031    14.138685139     0.903400270
 H       -7.624238977    13.693952135    -0.137815337
 H       -6.260423337    14.570550079    -0.815499161
 H       -6.015619294    10.979829492    -2.124343525
 H       -6.147046961    12.671224700    -2.622912160
 H       -7.494859163    11.888244680    -1.812519239
 H       -5.061647040    12.610539554     2.537844588
 H       -3.649226845    13.225421511     3.384909835
 H       -3.585191578    11.633292248     2.642418656
 H       -1.432100846    13.945329382     0.470872799
 H       -1.400232523    12.452028300     1.427573293
 H       -1.613592289    14.007674658     2.219137584
 H       -2.513529252    -1.699209157    -0.734968458
 H       -2.439082813    -1.649723306    -2.489097998
 H       -2.707299778    -0.158850112    -1.596943532
 H        0.876978951    -0.049383943    -2.962679647
 H       -0.666259218     0.826150411    -2.953436891
 H       -0.539593246    -0.746685281    -3.732693664
 H       -0.464537830    -2.981076953     0.733544651
 H       -0.652176955    -2.879738999     2.477935251
 H        0.897841063    -2.479896103     1.752214969
 H       -0.655615471     0.834379725     2.883359408
 H        0.776120400    -0.196191415     3.052776850
 H       -0.774996230    -0.721392143     3.694628198

