187   

Si        0.000000000     0.000000000     0.000000000
 C        1.865272650     0.000000000     0.000000000
 C       -0.663258659     1.717888166     0.000000000
 C        0.110101302     2.780205271    -0.479908869
 C       -0.393138174     4.080447921    -0.479410358
 C       -1.680780620     4.348389701    -0.006507162
 C       -2.456446762     3.282687030     0.467724447
 C       -1.956678120     1.982994387     0.468689085
 C       -2.245577690     5.693764928     0.011615660
 C       -1.598733841     6.790974834    -0.415862955
 C       -2.143328123     8.143399806    -0.406894927
 C       -3.427447866     8.437313865     0.060597163
 C       -3.906400981     9.746521205     0.050014884
 C       -3.102139977    10.795286355    -0.411119887
 C       -1.814557024    10.502802403    -0.876108692
 C       -1.344529862     9.192458291    -0.879026607
Si       -3.742457097    12.521144224    -0.421663809
 C       -2.779709065    13.611545209    -1.528199793
 C       -2.147944052    13.210224356    -2.638808464
 C       -1.382281316    14.101473994    -3.510539194
 C       -0.764074413    13.559898031    -4.648562743
 C       -0.028321083    14.359151919    -5.505925681
 C        0.135741333    15.731960983    -5.227170986
 C       -0.486443022    16.278503717    -4.095115853
 C       -1.253749990    15.469148871    -3.263509199
 N        0.898826080    16.501212367    -6.139865180
 C        2.261666659    15.976529344    -6.389733554
 C        0.865976907    17.960965590    -5.950274483
 C        2.984774058    15.364984783    -5.175913362
 C        3.137089728    16.362181284    -4.014163479
 N        3.928696259    15.843012550    -2.889382736
 C        3.387021909    14.820526171    -2.090888571
 C        1.996173831    14.601702979    -2.020820165
 C        1.476874063    13.588756727    -1.228406535
 C        2.309940611    12.788858941    -0.434233497
 C        3.686812218    13.028149889    -0.480088994
 C        4.224200349    14.024201847    -1.283342984
 C        5.367452765    15.756757566    -3.193373696
 C        1.727707109    11.727146411     0.391190041
 C        2.453833053    10.920397826     1.176709622
Si        1.855907098     9.567120227     2.248345544
 C        2.556627575     9.743854890     3.941412873
 C        3.108704789    10.958515445     4.364769904
 C        3.636649865    11.082916005     5.647795195
 C        3.616521095    10.002564642     6.539163677
 C        3.058342086     8.792966552     6.114884132
 C        2.532169501     8.663665279     4.830822439
 C        4.181581097    10.181076782     7.872727978
 C        4.227162239     9.226631083     8.817673509
 C        4.791667698     9.403082749    10.151558515
 C        5.350768788    10.609419995    10.581084324
 C        5.879377234    10.733205165    11.865968972
 C        5.866495044     9.648147260    12.747937317
 C        5.307205247     8.436697938    12.319325779
 C        4.774872896     8.318147509    11.038637768
Si        6.559973505     9.795042997    14.446650587
 C        7.583538103    11.342843012    14.638422222
 C        5.136348574     9.841904861    15.709501686
 C        7.624474028     8.255019331    14.792053567
 C       -0.040253074     9.561017712     2.377539954
 C        2.460061394     7.916085978     1.515279284
 C       -5.571164257    12.529287502    -0.931296545
 C       -3.575912076    13.234951178     1.335498432
 C       -0.630844157    -0.907100254    -1.549176457
 C       -0.650984198    -0.914926311     1.537062675
 H        1.124289466     2.632866525    -0.861664689
 H        0.232100597     4.890054040    -0.852595617
 H       -3.462283112     3.468824515     0.839390905
 H       -2.608705972     1.191856398     0.849077253
 H       -3.261431902     5.761900891     0.409778085
 H       -0.584020262     6.710154177    -0.820643407
 H       -4.068057977     7.640718625     0.433276283
 H       -4.922164721     9.912315721     0.419023407
 H       -1.132269741    11.281765491    -1.235008749
 H       -0.342795929     8.987709433    -1.256872880
 H       -2.761505402    14.667487257    -1.213990681
 H       -2.165413007    12.169961810    -2.993586879
 H       -0.866395546    12.495604875    -4.864479081
 H        0.421838764    13.934331449    -6.399752977
 H       -0.382502360    17.332006844    -3.855037954
 H       -1.741276591    15.916483167    -2.396083705
 H        1.323367992    18.444367732    -6.831389468
 H        1.384808461    18.317208587    -5.047298324
 H       -0.185065747    18.300408821    -5.914629572
 H        5.660606601    16.551476232    -3.898220129
 H        5.663733822    14.785968563    -3.623404392
 H        5.941995107    15.926284238    -2.263709171
 H        1.311750411    15.210333429    -2.608448626
 H        0.395880947    13.425876647    -1.221943028
 H        4.363747349    12.424705135     0.127388438
 H        5.298309151    14.174807183    -1.280061585
 H        0.634382261    11.662698313     0.315937957
 H        3.552826692    11.021401560     1.218215195
 H        3.144896656    11.837127712     3.712608941
 H        4.066165782    12.033029536     5.959336302
 H        3.029548014     7.938889522     6.788660946
 H        2.107407132     7.694177171     4.554893423
 H        4.583937872    11.179119562     8.069639127
 H        3.824520273     8.228888582     8.620420309
 H        5.377224779    11.467631327     9.912112175
 H        6.301809579    11.702359724    12.145212492
 H        5.270132510     7.554732914    12.964904455
 H        4.343182938     7.369838842    10.724417588
 H        2.157574224    15.194862012    -7.181037335
 H        2.885243893    16.781168039    -6.835402056
 H        2.442326479    14.465370420    -4.816924789
 H        3.977929236    14.996952794    -5.493829707
 H        3.619535926    17.300679961    -4.369865402
 H        2.134740145    16.663663118    -3.627916614
 H        2.263956530    -1.028191105     0.065314205
 H        2.259133461     0.564714901     0.864862715
 H        2.276749378     0.458147646    -0.916197577
 H        8.035491268    11.399296517    15.644754749
 H        6.977576207    12.254444983    14.494407756
 H        8.407926783    11.365690810    13.902694019
 H        5.625678387     9.991514635    16.715109530
 C        4.172337661    11.017921683    15.467646683
 C        4.319052808     8.538915228    15.766659508
 H        6.926545699     7.371775938    14.707473613
 C        8.745992091     8.069229739    13.754020579
 C        8.238660854     8.236303135    16.203139320
 H       -0.426466222     9.813902424     1.345421352
 C       -0.640977157     8.203393361     2.779658902
 C       -0.553224504    10.635457234     3.353509030
 H        1.958715020     7.107038622     2.122185069
 C        2.060807613     7.724878565     0.042420752
 C        3.982839970     7.732846063     1.646310532
 H       -6.123075921    11.961783341    -0.127093178
 C       -6.173480559    13.943143900    -1.012286774
 C       -5.806656194    11.808111698    -2.270552777
 H       -4.124191082    14.220474154     1.325582497
 C       -4.215686288    12.343873227     2.413481772
 C       -2.108363284    13.507538581     1.710050071
 H       -0.163799063    -1.933607260    -1.516782187
 C       -2.160393011    -1.078534321    -1.572659669
 C       -0.190104595    -0.223317141    -2.856361595
 H       -1.776017463    -0.917153978     1.443739036
 C       -0.184631432    -2.379275713     1.622473466
 C       -0.287808341    -0.196213883     2.849182093
 H        4.664351335    11.998616515    15.496460545
 H        3.399679050    11.038914852    16.249493683
 H        3.638012765    10.941823850    14.509575840
 H        4.921318455     7.656706375    16.017654209
 H        3.786048782     8.328629624    14.828620078
 H        3.546848464     8.614290849    16.546138242
 H        8.375899805     8.019115254    12.719845145
 H        9.275832344     7.123466850    13.936367770
 H        9.504824482     8.861813213    13.795300967
 H        7.490200938     8.295144532    17.003874211
 H        8.965499458     9.043398515    16.364539963
 H        8.784866630     7.295067727    16.361899914
 H       -0.431305558     7.405176871     2.054003083
 H       -1.737682623     8.281270889     2.826156567
 H       -0.314828761     7.858752538     3.768775316
 H       -0.166314873    11.642269293     3.144288862
 H       -0.315094616    10.405512434     4.401726391
 H       -1.649346286    10.703837433     3.292965309
 H        0.975041131     7.776116910    -0.114754028
 H        2.382132936     6.734711047    -0.309689373
 H        2.530978626     8.459773874    -0.626118375
 H        4.343674771     7.808515584     2.681767906
 H        4.554974168     8.451243723     1.044313899
 H        4.273420117     6.733189826     1.293801648
 H       -6.106517155    14.502075348    -0.070294431
 H       -7.244296067    13.881403421    -1.255400508
 H       -5.715860174    14.557475493    -1.800576525
 H       -5.460037188    10.765123392    -2.270866842
 H       -5.328489880    12.315793840    -3.120498023
 H       -6.881699686    11.774224548    -2.497494912
 H       -5.288515680    12.173495163     2.259617872
 H       -4.120818468    12.820097881     3.400441077
 H       -3.730236077    11.360594102     2.500019489
 H       -1.616313071    14.233268551     1.047820553
 H       -1.490476182    12.596454431     1.718180794
 H       -2.047995620    13.928047646     2.723874468
 H       -2.547452020    -1.652059419    -0.720886049
 H       -2.462922566    -1.629391364    -2.475189102
 H       -2.697675495    -0.120017080    -1.605359894
 H        0.899238696    -0.135249211    -2.956982236
 H       -0.619066128     0.781710027    -2.978200665
 H       -0.531546535    -0.809639810    -3.721579864
 H       -0.470556887    -2.978536696     0.748419798
 H       -0.643995289    -2.868913536     2.493572643
 H        0.901224024    -2.476286635     1.753977452
 H       -0.636053127     0.845897617     2.884886855
 H        0.791804832    -0.190314517     3.050329783
 H       -0.758172663    -0.706792650     3.701599089

