187   

Si        0.000000000     0.000000000     0.000000000
 C        1.865278177     0.000000000     0.000000000
 C       -0.675943282     1.712177098     0.000000000
 C        0.111471530     2.795855007     0.402124300
 C       -0.408118159     4.090137031     0.399270113
 C       -1.725853035     4.330321681     0.001265094
 C       -2.515028568     3.242780903    -0.396389970
 C       -1.999068134     1.949784944    -0.395649741
 C       -2.312071180     5.666321848    -0.017914731
 C       -1.667113902     6.790790130     0.336420097
 C       -2.254207057     8.126451641     0.316912002
 C       -3.572169251     8.364225793    -0.081476617
 C       -4.093782422     9.657823586    -0.085077232
 C       -3.311111868    10.741252174     0.323832304
 C       -1.988646908    10.505055918     0.726006474
 C       -1.467266977     9.214721197     0.717303651
Si       -3.956737838    12.467077831     0.336009414
 C       -3.271962641    13.400535936     1.753870817
 C       -2.932456367    12.818026449     2.911392847
 C       -2.382449705    13.517427256     4.072102482
 C       -2.074745252    12.770826464     5.216281625
 C       -1.550760939    13.373220988     6.349868816
 C       -1.208409222    14.741159564     6.337181562
 C       -1.490170467    15.487367190     5.172571242
 C       -2.087480043    14.884371597     4.075119049
 N       -0.676169321    15.375849505     7.470997471
 C       -0.222974970    14.546495694     8.599540347
 C        0.158802411    16.562780922     7.221757152
 C        0.904694505    13.543818453     8.291298616
 C        2.317900443    14.143058826     8.420305591
 N        3.246708376    13.768697989     7.328361980
 C        2.886995263    14.405955061     6.093839717
 C        3.361482844    15.716563976     5.922748816
 C        3.063420470    16.410917789     4.760683851
 C        2.280413049    15.824987702     3.754994827
 C        1.819988920    14.517550243     3.930259944
 C        2.130656940    13.803051697     5.083231111
 C        3.452660931    12.313218362     7.219591810
 C        1.999315296    16.608580158     2.549702745
 C        1.267528169    16.166943336     1.519794276
Si        0.904507741    17.127304696     0.007062849
 C       -0.905509997    17.055425051    -0.298756438
 C       -1.773421084    17.069748069     0.799863520
 C       -3.152434175    17.016686458     0.610304847
 C       -3.692431960    16.980087874    -0.678794997
 C       -2.821796405    16.977756952    -1.776125627
 C       -1.441655368    17.011258009    -1.589841361
 C       -5.129295024    16.924202116    -0.922241658
 C       -6.062036270    16.920639965     0.044961054
 C       -7.500918733    16.864973363    -0.188588748
 C       -8.054328128    16.808919009    -1.469970585
 C       -9.436773556    16.756818012    -1.646820524
 C      -10.295233522    16.758377435    -0.543109651
 C       -9.741824762    16.812113396     0.743526330
 C       -8.361938772    16.862962339     0.916991070
Si      -12.121923344    16.690038859    -0.758722095
 C      -12.619175534    17.015884474    -2.526495619
 C      -12.739562031    14.960492107    -0.256795558
 C      -12.911595608    17.978990137     0.397311088
 C        1.410751459    18.949857540     0.196715426
 C        1.875562151    16.368287131    -1.439832283
 C       -3.482922085    13.370989603    -1.261890805
 C       -5.854590915    12.393706780     0.477823631
 C       -0.650895419    -0.911716422    -1.539549866
 C       -0.624002716    -0.915546496     1.547568200
 H        1.149151140     2.670800368     0.723420151
 H        0.226674530     4.916847543     0.712868049
 H       -3.544128773     3.407724745    -0.709851406
 H       -2.662554149     1.141662395    -0.715799749
 H       -3.352956485     5.704170160    -0.352161913
 H       -0.626055108     6.753504502     0.670332391
 H       -4.204763334     7.537063753    -0.397195236
 H       -5.128760819     9.781019265    -0.415285857
 H       -1.329188339    11.316635001     1.054349570
 H       -0.437542348     9.051331692     1.028754819
 H       -3.166699723    14.484537161     1.596631196
 H       -3.040608868    11.736010028     3.080047037
 H       -2.278910396    11.699231417     5.233463249
 H       -1.400996821    12.770501898     7.239232786
 H       -1.249090601    16.544911592     5.127241941
 H       -2.312873823    15.487961656     3.193966148
 H        0.639321841    16.905776817     8.150931551
 H       -0.485367351    17.388643997     6.868386215
 H        0.948197367    16.382757222     6.469152131
 H        3.918670632    11.957911322     8.154871284
 H        4.163765358    12.111137359     6.399409431
 H        2.539670805    11.725536687     7.042202626
 H        3.974141084    16.167850309     6.701513594
 H        3.445295463    17.422916693     4.629818191
 H        1.204604092    14.044129261     3.162508937
 H        1.766812722    12.784800900     5.195934716
 H        2.454864966    17.607222030     2.572050019
 H        0.824341937    15.155973887     1.522874825
 H       -1.403089452    17.111092604     1.830571511
 H       -3.810011252    17.012948691     1.478467389
 H       -3.224258197    16.946165504    -2.786448432
 H       -0.809343250    17.000080991    -2.481069190
 H       -5.416552997    16.883216098    -1.976235020
 H       -5.771371591    16.963915632     1.099836042
 H       -7.407825809    16.807359005    -2.345633902
 H       -9.812168795    16.717005877    -2.673005177
 H      -10.364620000    16.816525653     1.642745334
 H       -7.950200786    16.903199545     1.924174112
 H        0.077099901    15.222710649     9.431224395
 H       -1.118222422    13.994279440     8.977552855
 H        0.808474906    12.668682774     8.959142719
 H        0.764913094    13.144171519     7.264784622
 H        2.274250391    15.254068145     8.455856196
 H        2.789029390    13.821795047     9.375325234
 H        2.263344718    -1.028999502    -0.053482985
 H        2.276173777     0.468495163     0.911270279
 H        2.259627402     0.554528310    -0.871071174
 H      -13.718439103    17.017563447    -2.636639985
 H      -12.217841236    16.249772045    -3.212719629
 H      -12.250628504    18.000582549    -2.867018320
 H      -13.846285523    14.956429498    -0.475710328
 C      -12.084059118    13.838987707    -1.083720586
 C      -12.548246191    14.645686942     1.237570266
 H      -12.602603783    17.687587448     1.443340074
 C      -12.392182974    19.403786958     0.132955648
 C      -14.449743490    17.987764748     0.346322125
 H        2.502432391    18.943638274     0.481938514
 C        1.264840555    19.753413378    -1.107849945
 C        0.627261561    19.668579375     1.310500920
 H        1.581620205    16.958247683    -2.355794719
 C        3.400159390    16.489613531    -1.266634004
 C        1.518602601    14.892352307    -1.687936832
 H       -3.856908486    14.431479602    -1.133047832
 C       -1.959123812    13.428275361    -1.466837147
 C       -4.140657984    12.786982703    -2.523085291
 H       -6.201849088    11.775247305    -0.400010398
 C       -6.315044024    11.696557699     1.771351230
 C       -6.539380954    13.764554249     0.385982625
 H       -1.775647749    -0.918358059    -1.443597830
 C       -0.294121961    -0.185839318    -2.849368682
 C       -0.179050640    -2.373822321    -1.632210159
 H       -0.149284915    -1.938357898     1.511574458
 C       -0.186240923    -0.231780214     2.855828083
 C       -2.152066126    -1.099129555     1.574102684
 H      -12.246314700    13.941627653    -2.164334392
 H      -12.509281897    12.865150989    -0.801239516
 H      -11.000132579    13.761989768    -0.915568649
 H      -13.056908334    15.356053560     1.901477103
 H      -11.490346430    14.604165315     1.533269016
 H      -12.969109259    13.656209210     1.469124521
 H      -11.298800991    19.488422354     0.210751780
 H      -12.807276538    20.100286009     0.875480612
 H      -12.684682814    19.791822671    -0.851737495
 H      -14.898562834    17.018029723     0.597609717
 H      -14.844534646    18.295989572    -0.630844052
 H      -14.845206741    18.707745584     1.077714574
 H        1.880181322    19.365723481    -1.929900646
 H        1.587767433    20.792496595    -0.947770494
 H        0.226346350    19.808836585    -1.463859204
 H        0.703149654    19.177299745     2.290179158
 H       -0.442030937    19.774721127     1.076479475
 H        1.013950498    20.688511048     1.445105635
 H        3.748421698    17.526235138    -1.174027903
 H        3.912893297    16.072210749    -2.145236638
 H        3.778457188    15.931828818    -0.397887216
 H        0.447535471    14.726955464    -1.871779485
 H        1.820209534    14.233762974    -0.861128430
 H        2.043011326    14.522769086    -2.580696751
 H       -1.429883095    13.903915905    -0.627667148
 H       -1.725423231    14.030068685    -2.357050339
 H       -1.510551301    12.439417477    -1.631884838
 H       -5.237790133    12.806933242    -2.487751965
 H       -3.830223899    11.753389359    -2.728869285
 H       -3.850586037    13.376029972    -3.404826715
 H       -5.923585264    10.676590248     1.883084650
 H       -7.410505840    11.609983947     1.783011348
 H       -6.039658306    12.256716472     2.676796063
 H       -6.314184266    14.305046342    -0.543853501
 H       -6.286291716    14.427754970     1.224639235
 H       -7.632573607    13.646857516     0.408525338
 H       -0.648651987     0.854509609    -2.879505443
 H       -0.763456445    -0.695060699    -3.703039137
 H        0.784919427    -0.172825513    -3.052620869
 H       -0.464950577    -2.978826389    -0.762139835
 H        0.907388886    -2.466228739    -1.761703964
 H       -0.634527951    -2.860086548    -2.507153522
 H        0.902652620    -0.137428314     2.955549151
 H       -0.523690303    -0.821548765     3.720172449
 H       -0.620646646     0.770752827     2.979563140
 H       -2.536784280    -1.670372435     0.719834192
 H       -2.696306206    -0.144802263     1.614339761
 H       -2.447841280    -1.657761050     2.474023772

