187   

Si        0.000000000     0.000000000     0.000000000
 C        1.864597261     0.000000000     0.000000000
 C       -0.680754372     1.708331560     0.000000000
 C        0.134772061     2.827071561     0.193234178
 C       -0.410484406     4.111726985     0.188127601
 C       -1.781146761     4.300047624     0.002769214
 C       -2.597910560     3.176860610    -0.187054542
 C       -2.056329999     1.896598013    -0.191287052
 C       -2.409615706     5.614153995    -0.012568227
 C       -1.774998695     6.787915322     0.144788074
 C       -2.455390148     8.078903864     0.120712800
 C       -3.836936808     8.181793911    -0.071048912
 C       -4.462665408     9.425516316    -0.089987370
 C       -3.715596766    10.598215742     0.069636240
 C       -2.331555937    10.500800413     0.255154167
 C       -1.710126287     9.253568317     0.280022964
Si       -4.569688671    12.224767762     0.040121854
 C       -3.671974664    13.517070428     0.966676337
 C       -2.894068172    13.282205129     2.031449076
 C       -2.179263222    14.328036228     2.765963943
 C       -1.392319778    13.959835146     3.868353665
 C       -0.697015005    14.911343294     4.595548853
 C       -0.796489861    16.274303429     4.253299193
 C       -1.604550244    16.648960589     3.171773146
 C       -2.296920717    15.682500914     2.449536842
 N       -0.056639528    17.199710216     5.040917431
 C        1.404691418    16.956448687     5.008733832
 C       -0.417141188    18.616841510     4.875805230
 C        2.002764736    16.672827366     3.618740951
 C        2.384966699    17.943775826     2.835847235
 N        1.884138738    17.991313929     1.448440918
 C        2.047166630    16.828703945     0.669196279
 C        3.273862984    16.134582590     0.735698577
 C        3.468210171    14.988596067    -0.016560452
 C        2.475294703    14.512923721    -0.887101783
 C        1.269773462    15.213313619    -0.965917179
 C        1.051321822    16.355191702    -0.203337949
 C        0.616349872    18.717485707     1.291318814
 C        2.744038104    13.295445006    -1.653907122
 C        1.891369844    12.729526180    -2.518715106
Si        2.244097827    11.205224752    -3.470312516
 C        0.893688894     9.964309232    -3.339128578
 C       -0.401351486    10.315843447    -2.942015422
 C       -1.399128505     9.346999157    -2.854233715
 C       -1.135294577     8.012207104    -3.184604128
 C        0.156306837     7.666618437    -3.592181883
 C        1.159043783     8.629854422    -3.667875612
 C       -2.203653695     7.023655241    -3.081185935
 C       -2.049896906     5.718359927    -3.361538309
 C       -3.099196501     4.710732403    -3.266697587
 C       -4.402823350     5.010692067    -2.864283044
 C       -5.372200034     4.010220819    -2.789428688
 C       -5.054021086     2.685818728    -3.104996810
 C       -3.745364045     2.381882767    -3.505090450
 C       -2.782274212     3.382899402    -3.585748142
Si       -6.317063956     1.350454222    -3.013065972
 C       -8.016632617     2.034506731    -2.662700843
 C       -6.295297383     0.423093135    -4.674940759
 C       -5.868478710     0.115043476    -1.634376744
 C        2.383160021    11.669526917    -5.312400155
 C        3.906673801    10.481268053    -2.883341978
 C       -4.675854847    12.786845689    -1.776933018
 C       -6.327676605    12.059481047     0.743607197
 C       -0.677230614    -0.881225192    -1.547560447
 C       -0.616346251    -0.939716175     1.536521649
 H        1.212869880     2.737895111     0.346568116
 H        0.243577198     4.969971448     0.328978852
 H       -3.667285400     3.309354735    -0.354119307
 H       -2.742234526     1.058655208    -0.353267548
 H       -3.493436616     5.588711855    -0.175138184
 H       -0.694275119     6.831502729     0.295238808
 H       -4.440012662     7.284341860    -0.198022012
 H       -5.546058448     9.439019260    -0.236364664
 H       -1.697723988    11.386264495     0.376857696
 H       -0.631055601     9.195653606     0.416624363
 H       -3.827458127    14.538998280     0.587608609
 H       -2.725842720    12.274558841     2.437075716
 H       -1.314697112    12.908738416     4.149774994
 H       -0.088235930    14.614299333     5.446672140
 H       -1.715913841    17.693803712     2.898939080
 H       -2.925695349    15.996004222     1.615608997
 H        0.074173625    19.201606904     5.673078718
 H       -1.506353198    18.733469101     5.020107432
 H       -0.140493793    19.049597744     3.903098937
 H        0.663039397    19.669683983     1.845406493
 H       -0.264140475    18.147438883     1.631591120
 H        0.479204959    18.979580669     0.225328606
 H        4.067909647    16.498473319     1.381168809
 H        4.415981590    14.455596642     0.062924135
 H        0.476777165    14.859023780    -1.626245957
 H        0.091840827    16.856897962    -0.277000647
 H        3.735651174    12.873483275    -1.438297342
 H        0.904234004    13.174328208    -2.718932919
 H       -0.664777658    11.341845573    -2.669384888
 H       -2.396636793     9.633465134    -2.518693599
 H        0.390619799     6.635562317    -3.850643108
 H        2.148871873     8.294860378    -3.991568246
 H       -3.166308897     7.418710950    -2.744030348
 H       -1.078693130     5.331044555    -3.684938234
 H       -4.673778629     6.034640004    -2.613694568
 H       -6.376761503     4.305751547    -2.476119636
 H       -3.438614643     1.364862090    -3.766178194
 H       -1.769305189     3.129043300    -3.893264247
 H        1.922960135    17.811162246     5.492263038
 H        1.588826230    16.075965698     5.671099892
 H        2.893560184    16.025726066     3.731182611
 H        1.298243476    16.055011632     3.022192708
 H        2.039425927    18.854060440     3.371738984
 H        3.495960175    18.035198570     2.782386138
 H        2.264596170    -1.029212917    -0.017725695
 H        2.271611264     0.499539682     0.896772708
 H        2.261137006     0.525323115    -0.887571035
 H       -8.771484775     1.229004010    -2.629942796
 H       -8.327678698     2.746222451    -3.448566556
 H       -8.052927994     2.563682694    -1.694453342
 H       -5.249153331     0.013152056    -4.786469752
 C       -7.275184530    -0.762098659    -4.730329899
 C       -6.564775445     1.353089356    -5.871613308
 H       -6.725118394    -0.619208813    -1.604153075
 C       -4.577107168    -0.676776308    -1.905245432
 C       -5.765544637     0.779343600    -0.249620783
 H        2.652472026    10.713018390    -5.847100745
 C        1.053160111    12.180031462    -5.894798842
 C        3.484933591    12.705764509    -5.592532859
 H        4.592009412    11.371990043    -2.764471823
 C        3.780016257     9.788916455    -1.513788362
 C        4.588538407     9.516204355    -3.868909809
 H       -5.253589420    13.754721956    -1.770293815
 C       -3.287289471    13.059670083    -2.383623248
 C       -5.424772522    11.787672122    -2.675451741
 H       -6.871352059    11.339006498     0.066872566
 C       -6.333853832    11.475108740     2.167456699
 C       -7.107181697    13.386677346     0.744514163
 H       -1.787593956    -0.994391401    -1.372534980
 C       -0.488690765    -0.056403980    -2.833581397
 C       -0.091071614    -2.287687564    -1.759400408
 H       -0.132171024    -1.957371145     1.483581979
 C       -0.175927188    -0.268563934     2.850633672
 C       -2.142107770    -1.141634895     1.576742183
 H       -7.094648748    -1.512530735    -3.950004948
 H       -7.174181396    -1.287849999    -5.691053698
 H       -8.326434266    -0.452796371    -4.660118462
 H       -5.861753684     2.196575525    -5.931557141
 H       -7.581049184     1.768537489    -5.872960701
 H       -6.456944321     0.796873870    -6.813674472
 H       -4.626217315    -1.286328428    -2.816459450
 H       -4.384245647    -1.377028419    -1.079373816
 H       -3.688036437    -0.033304324    -1.981599985
 H       -6.691621401     1.279120160     0.062127951
 H       -4.954221524     1.518981538    -0.186832213
 H       -5.554415486     0.021325919     0.518328858
 H        0.223081722    11.470006428    -5.768951764
 H        1.154709950    12.341273204    -6.977425330
 H        0.739247663    13.141910737    -5.467624104
 H        4.482319126    12.381475970    -5.268965785
 H        3.284734791    13.679322605    -5.122341259
 H        3.557974408    12.894747232    -6.673006903
 H        3.370436191    10.442463180    -0.730341943
 H        4.768144809     9.464200985    -1.160126105
 H        3.151650317     8.887116965    -1.547855767
 H        4.753584001     9.952832934    -4.862331351
 H        4.039012858     8.575531468    -4.005192742
 H        5.581460150     9.234647771    -3.488805353
 H       -2.699213780    13.794382659    -1.816367986
 H       -3.393406885    13.464990483    -3.399714399
 H       -2.680313046    12.146666254    -2.478225748
 H       -6.462828617    11.615628245    -2.364811793
 H       -4.926597442    10.808942082    -2.737102448
 H       -5.473753620    12.170916748    -3.705066756
 H       -5.846983063    10.492183409     2.237668080
 H       -7.367313527    11.331821069     2.512956545
 H       -5.851614175    12.135445153     2.902817518
 H       -7.210000474    13.833241166    -0.252478947
 H       -6.662510060    14.142382048     1.407328573
 H       -8.130153475    13.220665684     1.112372943
 H       -0.955266485     0.938988902    -2.778742222
 H       -0.954472435    -0.572312534    -3.684905341
 H        0.566193535     0.088609860    -3.100055699
 H       -0.244691619    -2.957319371    -0.903518519
 H        0.983933930    -2.273792447    -1.982467732
 H       -0.576472543    -2.771904455    -2.619045802
 H        0.912646957    -0.165795159     2.945157734
 H       -0.502670136    -0.871014362     3.710108279
 H       -0.617111649     0.729341967     2.988698872
 H       -2.535199971    -1.679259903     0.705012348
 H       -2.693864064    -0.194988698     1.668140440
 H       -2.417371506    -1.741831118     2.456053780

