187   

Si        0.000000000     0.000000000     0.000000000
 C        1.865289401     0.000000000     0.000000000
 C       -0.681377895     1.710104597     0.000000000
 C        0.135085286     2.815137745    -0.260063151
 C       -0.394853815     4.105430617    -0.256787015
 C       -1.751540647     4.319851435    -0.000696423
 C       -2.569203362     3.211125692     0.256574600
 C       -2.042679726     1.922596938     0.257400671
 C       -2.350140999     5.650422743     0.013180510
 C       -1.681456207     6.793970398    -0.213221489
 C       -2.283101726     8.123406333    -0.198640101
 C       -1.468018212     9.234764977    -0.451950746
 C       -1.997921979    10.522519077    -0.448478135
 C       -3.361381045    10.726798340    -0.204522757
 C       -4.178126328     9.619303607     0.047133425
 C       -3.641728927     8.332427450     0.054676484
Si       -4.074117607    12.418986635    -0.196837481
 C       -5.868141444    12.346189768    -0.537079248
 C       -6.834663996    12.937835821     0.175188183
 C       -8.260751999    12.840545266    -0.151238905
 C       -9.187068921    13.503609799     0.667722784
 C      -10.546001206    13.439179385     0.396811579
 C      -11.004268914    12.682669099    -0.692020054
 C      -10.091017345    12.000963774    -1.501778239
 C       -8.730047071    12.076526655    -1.223036697
 N      -12.429482401    12.675962466    -0.893518274
 C      -12.844107043    13.713403760    -1.864114429
 C      -12.972901028    11.339546717    -1.194685077
 C      -12.611639037    13.364275694    -3.347597742
 C      -12.411891403    14.618207659    -4.220175894
 N      -11.003879400    15.004995355    -4.441020275
 C      -10.315660536    15.499398913    -3.306452533
 C      -10.903917013    16.554003917    -2.578860016
 C      -10.267739000    17.070015764    -1.462298406
 C       -9.014670210    16.587352377    -1.056545845
 C       -8.418919923    15.567548620    -1.801327400
 C       -9.047241962    15.036536926    -2.921949355
 C      -10.271704581    14.034900222    -5.272538706
 C       -8.391135570    17.170987485     0.131002405
 C       -7.200737362    16.801979074     0.623561628
Si       -6.463662367    17.564075232     2.113718819
 C       -7.766670857    18.139178287     3.276582890
 C       -8.957699502    17.411018095     3.387942560
 C       -9.961252419    17.824752758     4.261399018
 C       -9.793217601    18.964585303     5.053353604
 C       -8.597621270    19.686601746     4.946235784
 C       -7.594735010    19.279222988     4.069067280
 C      -10.817104444    19.433880948     5.981115627
 C      -12.003456328    18.833668223     6.176741833
 C      -13.029182662    19.300381228     7.103537340
 C      -12.869249868    20.442240685     7.892690246
 C      -13.876632447    20.852479831     8.765916801
 C      -15.070054423    20.130533507     8.864661717
 C      -15.233181427    18.985238824     8.073441175
 C      -14.224463459    18.575803485     7.205994412
Si      -16.409992964    20.657542811    10.011703614
 C      -16.100066103    22.367395391    10.690013669
 C      -18.057634804    20.614391154     9.059473190
 C      -16.519369066    19.435941353    11.467459763
 C       -5.428891326    16.240903714     3.007969975
 C       -5.319781964    18.982177830     1.578250371
 C       -3.738263956    13.183316951     1.512208284
 C       -3.282437737    13.524802751    -1.524879727
 C       -0.608256758    -0.925812660    -1.547986754
 C       -0.656899452    -0.901900179     1.542242817
 H        1.203423184     2.710041349    -0.468258500
 H        0.262872402     4.948919632    -0.458374842
 H       -3.628719066     3.356284930     0.459262132
 H       -2.728943862     1.097167028     0.466932772
 H       -3.422842070     5.666762135     0.228201679
 H       -0.609085339     6.779241069    -0.428234899
 H       -0.407590595     9.093118325    -0.651720844
 H       -1.313768083    11.351645252    -0.647926998
 H       -5.250259109     9.721672346     0.245762674
 H       -4.295998063     7.486492949     0.257910318
 H       -6.108159232    11.751080579    -1.435305417
 H       -6.633278569    13.542341881     1.070196058
 H       -8.838400080    14.095379956     1.515133078
 H      -11.267634421    13.966191656     1.020598778
 H      -10.437148896    11.403196621    -2.339491421
 H       -8.029238825    11.534817864    -1.858291804
 H      -14.074343029    11.402907769    -1.204362117
 H      -12.686863296    10.649925223    -0.381018511
 H      -12.640379377    10.904781562    -2.148294549
 H      -10.860402068    13.817966518    -6.180022167
 H      -10.048112043    13.082123291    -4.766987024
 H       -9.321710130    14.491511863    -5.605880645
 H      -11.856850064    16.967070855    -2.899176969
 H      -10.745906398    17.871997438    -0.898568840
 H       -7.445786242    15.169472173    -1.503769178
 H       -8.556946290    14.235570400    -3.466320698
 H       -9.009064300    17.953047044     0.596876012
 H       -6.591765167    16.024731049     0.138085549
 H       -9.144272037    16.508065889     2.795489291
 H      -10.881925201    17.247189381     4.324169879
 H       -8.447168539    20.577068475     5.553555303
 H       -6.684806809    19.883680794     4.026541654
 H      -10.554056394    20.341021289     6.532843382
 H      -12.265198510    17.926077324     5.624712835
 H      -11.951043368    21.023626503     7.832295501
 H      -13.693412134    21.753531952     9.357874055
 H      -16.145157246    18.382445804     8.107359697
 H      -14.369195742    17.683153315     6.600408110
 H      -13.924310458    13.909745191    -1.683225607
 H      -12.304705789    14.654056926    -1.599490229
 H      -11.729425849    12.703286035    -3.443578211
 H      -13.464671903    12.775541780    -3.729137675
 H      -12.867886736    14.454089323    -5.224151294
 H      -12.955210365    15.486643186    -3.785920273
 H        2.262476930    -1.029846851     0.046000122
 H        2.261915399     0.547645146     0.874242266
 H        2.274767262     0.473963843    -0.909235621
 H      -16.929923433    22.692907891    11.342545376
 H      -16.010552023    23.107216487     9.873883935
 H      -15.172028025    22.409047182    11.286742944
 H      -18.196994828    19.543193618     8.731567858
 C      -19.273284602    21.005655284     9.918446877
 C      -18.031701184    21.493719656     7.796257401
 H      -17.308677953    19.854896240    12.156644816
 C      -16.952778582    18.017792882    11.055455771
 C      -15.200192741    19.338532294    12.255560309
 H       -4.733412378    15.809194144     2.228632282
 C       -4.566864223    16.807500981     4.148789668
 C       -6.301404670    15.101204928     3.563194867
 H       -4.865616795    19.396952799     2.523843998
 C       -4.171757109    18.514923807     0.664378810
 C       -6.085875956    20.118703387     0.878472467
 H       -4.352658219    14.131540016     1.558847491
 C       -4.193484402    12.260193707     2.656939004
 C       -2.264948999    13.564164378     1.736935723
 H       -2.183017320    13.573205170    -1.277589791
 C       -3.424787133    12.938288925    -2.940562590
 C       -3.838957210    14.960468460    -1.517701123
 H       -0.105167481    -1.935390883    -1.515671523
 C       -2.130167933    -1.153748886    -1.574563335
 C       -0.191851364    -0.226772995    -2.855177542
 H       -1.781653966    -0.901164115     1.445350022
 C       -0.193549318    -2.366228463     1.640827661
 C       -0.296968085    -0.172505695     2.849237446
 H      -19.400757962    20.371935221    10.805606644
 H      -20.197116237    20.900736299     9.331095909
 H      -19.241569478    22.050344043    10.255197870
 H      -17.219488118    21.232781735     7.102659559
 H      -17.943660067    22.565068519     8.020269876
 H      -18.967450724    21.371533552     7.232404278
 H      -17.930037820    17.987976906    10.557295813
 H      -17.044180343    17.379574909    11.946545283
 H      -16.223294791    17.522191388    10.399536433
 H      -14.862335105    20.300394940    12.662252215
 H      -14.376013025    18.921907023    11.658702201
 H      -15.324877226    18.667571477    13.117586862
 H       -3.844024744    17.562965286     3.815479346
 H       -3.977277724    16.002786097     4.611515184
 H       -5.163816758    17.251226540     4.958065436
 H       -6.930001638    14.617845288     2.802740179
 H       -6.962702761    15.430036746     4.377904035
 H       -5.664933574    14.310337651     3.986497318
 H       -3.527316802    17.756776047     1.127689782
 H       -3.517987386    19.364346776     0.419670284
 H       -4.526893818    18.116211752    -0.296616851
 H       -6.891817923    20.545318728     1.491449761
 H       -6.529763334    19.808356203    -0.078975690
 H       -5.403893752    20.948804066     0.646927633
 H       -5.264508556    12.016898757     2.621014915
 H       -4.015689266    12.744590562     3.627718895
 H       -3.641481727    11.309585281     2.687573541
 H       -1.888702245    14.298415704     1.013307077
 H       -1.590108110    12.697130123     1.718132206
 H       -2.142843572    14.022514945     2.729419772
 H       -3.014270826    11.923541591    -3.036182407
 H       -2.874382955    13.558209325    -3.662636507
 H       -4.466177060    12.910065713    -3.290385848
 H       -3.710422232    15.474523239    -0.555695301
 H       -4.905614259    15.007187374    -1.781765073
 H       -3.312136641    15.571288464    -2.264644065
 H       -2.501318669    -1.721688326    -0.712127570
 H       -2.406718466    -1.735701267    -2.465930459
 H       -2.701084679    -0.216395056    -1.633344354
 H        0.893581267    -0.098472144    -2.955326398
 H       -0.656323024     0.762401156    -2.976962902
 H       -0.511259609    -0.824806695    -3.720652129
 H       -0.476100291    -2.971487400     0.769832183
 H       -0.657845438    -2.848588138     2.513340639
 H        0.891504600    -2.463855156     1.778223258
 H       -0.647922129     0.869135426     2.875516971
 H        0.781964680    -0.163025642     3.052927318
 H       -0.768817709    -0.676711427     3.704639981

