187   

Si        0.000000000     0.000000000     0.000000000
 C        1.864437648     0.000000000     0.000000000
 C       -0.664611910     1.715613456     0.000000000
 C        0.005058309     2.716787378    -0.712343310
 C       -0.482033225     4.022501408    -0.724959410
 C       -1.646066084     4.356435812    -0.027690988
 C       -2.315185196     3.352460446     0.683597302
 C       -1.832422155     2.046648136     0.697467618
 C       -2.190561581     5.709848463    -0.014074553
 C       -1.639018901     6.751619376    -0.657724435
 C       -2.168093524     8.109857386    -0.655759874
 C       -1.475022126     9.090451647    -1.378815639
 C       -1.932397373    10.403280449    -1.413315005
 C       -3.125461104    10.760627039    -0.767285039
 C       -3.828986142     9.778332965    -0.065572468
 C       -3.353353266     8.467263735    -0.008922092
Si       -3.661865245    12.516637127    -0.859660199
 C       -5.164685733    12.972976122     0.073330151
 C       -5.620619577    12.421079664     1.205014250
 C       -6.842711137    12.857435707     1.883495370
 C       -7.230827238    12.209849290     3.065391762
 C       -8.377765664    12.586976531     3.741971873
 C       -9.128098721    13.703642311     3.318982451
 C       -8.728161577    14.367844543     2.145001856
 C       -7.621039824    13.925059527     1.430286707
 N      -10.290125340    14.064211232     4.025875355
 C      -10.260057778    13.953812759     5.494355958
 C      -11.015176084    15.255738798     3.555925796
 C       -9.397255997    15.006739968     6.218241794
 C       -7.992426872    14.514378990     6.619222462
 N       -7.915448705    13.490872392     7.685334750
 C       -8.024590413    12.156516267     7.194442410
 C       -6.920035483    11.660523416     6.476010218
 C       -6.946398982    10.372777961     5.965306273
 C       -8.058099195     9.540970509     6.171137008
 C       -9.137598674    10.030189209     6.909823557
 C       -9.119979500    11.318052130     7.436134064
 C       -8.739060712    13.797177277     8.864878624
 C       -8.035796163     8.188160623     5.610160775
 C       -9.036707266     7.307987071     5.742107029
Si       -9.031154555     5.615218083     5.051098523
 C       -8.039516918     5.488795741     3.507362725
 C       -7.801757983     6.616922341     2.712165988
 C       -7.049762961     6.512786318     1.544527570
 C       -6.545342209     5.275006915     1.126944372
 C       -6.798109767     4.147495673     1.914088533
 C       -7.537063309     4.251090167     3.091131979
 C       -5.762346232     5.208143509    -0.101842769
 C       -5.217886428     4.080299698    -0.588839944
 C       -4.432674342     3.993300411    -1.814326997
 C       -4.165519602     5.104085824    -2.618783536
 C       -3.409573365     4.971660325    -3.782057355
 C       -2.893402414     3.725432230    -4.156916201
 C       -3.154500193     2.613117481    -3.348752643
 C       -3.915828464     2.747267088    -2.191050644
Si       -1.899208513     3.585215025    -5.699131320
 C       -2.645472585     4.602555276    -7.070961802
 C       -0.147413708     4.226294743    -5.306488751
 C       -1.761025567     1.759531305    -6.218001604
 C       -8.339629364     4.417663509     6.356813883
 C      -10.830331983     5.135024705     4.662725743
 C       -2.220562530    13.594279530    -0.236763846
 C       -4.041984895    12.960543738    -2.675464206
 C       -0.636348316    -0.851263649    -1.582909845
 C       -0.664266399    -0.956762417     1.503190244
 H        0.923644938     2.516003973    -1.270921327
 H        0.053056127     4.783081151    -1.291180520
 H       -3.222743469     3.596320165     1.234810567
 H       -2.397316210     1.306514810     1.269610183
 H       -3.110512170     5.830662608     0.567449978
 H       -0.723758435     6.619597716    -1.242407292
 H       -0.559754514     8.828448937    -1.905785069
 H       -1.329466051    11.128804992    -1.967548828
 H       -4.772949357     9.995251623     0.443653911
 H       -3.916511642     7.720956766     0.550024934
 H       -5.711585521    13.810353676    -0.394586519
 H       -5.106055002    11.599047255     1.719480062
 H       -6.643051443    11.370828995     3.442514554
 H       -8.699023586    12.011145391     4.609263837
 H       -9.278824046    15.225975202     1.775793253
 H       -7.351919449    14.442092419     0.508353037
 H      -11.925596709    15.400885238     4.161451961
 H      -11.347336789    15.087803596     2.514766558
 H      -10.421137218    16.182736135     3.594983938
 H       -8.452803948    14.792561264     9.246613650
 H       -8.511293909    13.064200158     9.659443296
 H       -9.824875660    13.791021916     8.685485330
 H       -6.050008511    12.299087501     6.327271048
 H       -6.085537557     9.997735448     5.410304797
 H      -10.009172854     9.399528934     7.086222345
 H       -9.966992958    11.668708077     8.018107493
 H       -7.109015029     7.959935036     5.065253640
 H       -9.948127514     7.562597971     6.305989513
 H       -8.193182832     7.606015797     2.975734767
 H       -6.865562147     7.404103199     0.945881678
 H       -6.420024166     3.172696757     1.611623466
 H       -7.699326302     3.335112975     3.665565772
 H       -5.641010954     6.160292013    -0.626654643
 H       -5.351224626     3.127404549    -0.066877331
 H       -4.545530350     6.086257871    -2.341191428
 H       -3.236959558     5.875179482    -4.373915059
 H       -2.768953321     1.617296295    -3.584713186
 H       -4.101940440     1.873547048    -1.569022772
 H      -11.314052578    14.022826798     5.851231357
 H       -9.932639209    12.923384785     5.762573060
 H       -9.278254889    15.898895286     5.572102263
 H       -9.935344276    15.370287994     7.112737441
 H       -7.464446582    14.131202719     5.714126500
 H       -7.394877079    15.383990436     6.983008334
 H        2.263447100    -1.029215979     0.029650955
 H        2.257255745     0.534535638     0.884444426
 H        2.277545187     0.492477301    -0.897364628
 H       -2.072853348     4.492135365    -8.008473448
 H       -2.670619573     5.677134091    -6.818851827
 H       -3.684407235     4.285348170    -7.276239962
 H        0.404523038     4.241305935    -6.288789021
 C       -0.153305236     5.657084761    -4.736422949
 C        0.622915227     3.315058685    -4.334163121
 H       -1.331599274     1.216301200    -5.325119306
 C       -3.125474546     1.126525465    -6.545573152
 C       -0.808613273     1.529750210    -7.405594357
 H       -8.468681531     3.381384673     5.929621071
 C       -6.839882936     4.643435153     6.618696269
 C       -9.096599446     4.476368259     7.695497675
 H      -11.392203512     5.210860284     5.637904295
 C      -11.481881477     6.101995865     3.657789395
 C      -10.975265405     3.696168428     4.138050653
 H       -1.342956457    13.357520674    -0.904691342
 C       -2.502589645    15.103522132    -0.333969830
 C       -1.824821196    13.247988569     1.209795118
 H       -4.401966397    14.029982040    -2.656695640
 C       -2.830610943    12.889099578    -3.619864712
 C       -5.171501769    12.085074480    -3.248564435
 H       -0.213420585    -1.895752237    -1.563562369
 C       -2.171639473    -0.954199295    -1.634338753
 C       -0.147879833    -0.159285856    -2.868792077
 H       -1.789890882    -0.916028679     1.426758717
 C       -0.250869925    -2.439803181     1.516548780
 C       -0.256591473    -0.314340998     2.841718003
 H       -0.630660292     6.389298211    -5.399785356
 H        0.877800703     6.006000685    -4.585392478
 H       -0.650298560     5.721773202    -3.756553533
 H        0.770179853     2.296881938    -4.715814280
 H        0.134693512     3.237390981    -3.350153050
 H        1.627262927     3.722312704    -4.150930968
 H       -3.859072324     1.221176770    -5.732503008
 H       -3.007419562     0.049609294    -6.730680666
 H       -3.583780427     1.546589593    -7.450880200
 H        0.213010738     1.884962530    -7.218332639
 H       -1.159801370     1.999159562    -8.333816622
 H       -0.725983302     0.454176432    -7.618315165
 H       -6.221512392     4.557282695     5.714142437
 H       -6.461551340     3.888872265     7.322711907
 H       -6.627182518     5.622344796     7.072010519
 H      -10.167774171     4.257529579     7.601149433
 H       -8.995151209     5.447027010     8.201028093
 H       -8.690520312     3.725834317     8.389117021
 H      -11.464530789     7.150933538     3.984684467
 H      -12.540001280     5.841120627     3.514575496
 H      -11.018079699     6.059240951     2.661438583
 H      -10.614367843     2.936117007     4.842377989
 H      -10.461303260     3.536623043     3.179099783
 H      -12.035696335     3.467406940     3.957091487
 H       -2.724354412    15.440235440    -1.354616301
 H       -1.619829994    15.672216892    -0.007770730
 H       -3.330750362    15.425209081     0.313140293
 H       -1.540524317    12.194355953     1.341597400
 H       -2.619201225    13.470897949     1.936343139
 H       -0.951368356    13.841492582     1.514555327
 H       -1.982615931    13.503253925    -3.291952580
 H       -3.110947584    13.260601429    -4.616456851
 H       -2.468158505    11.862699094    -3.770206662
 H       -6.100799395    12.132309197    -2.663627291
 H       -4.889935227    11.025556609    -3.333356038
 H       -5.429007363    12.417390415    -4.263990046
 H       -2.597580804    -1.524879058    -0.799835450
 H       -2.483741092    -1.474581417    -2.551264649
 H       -2.664004069     0.029438997    -1.653694140
 H        0.945206862    -0.134283606    -2.960210257
 H       -0.515855804     0.874130654    -2.961509941
 H       -0.517483600    -0.700335810    -3.751573288
 H       -0.577171618    -2.990009899     0.624646128
 H       -0.710014620    -2.949559187     2.376043672
 H        0.833026196    -2.582120680     1.619393130
 H       -0.551915242     0.741111823     2.927519809
 H        0.823901349    -0.369872598     3.030852365
 H       -0.743285453    -0.839066475     3.676005984

