187   

Si        0.000000000     0.000000000     0.000000000
 C        1.865937934     0.000000000     0.000000000
 C       -0.675738339     1.712510493     0.000000000
 C        0.171170943     2.824924610    -0.025804149
 C       -0.354244223     4.116914853    -0.025490900
 C       -1.735575978     4.326382022    -0.011696500
 C       -2.583247445     3.210852716     0.014191697
 C       -2.061586562     1.920367026     0.025947487
 C       -2.328289257     5.659527818    -0.010837149
 C       -1.626582353     6.805386880    -0.022940903
 C       -2.214294377     8.140204218    -0.022141385
 C       -1.358321574     9.248966386    -0.035729916
 C       -1.871271050    10.543285011    -0.035558322
 C       -3.254842338    10.759009696    -0.015565692
 C       -4.112096190     9.653327653    -0.005674299
 C       -3.595381558     8.358595476    -0.015586070
Si       -3.936230294    12.465332615    -0.015260154
 C       -5.477417983    12.591339922     0.955491843
 C       -5.773329861    11.831010302     2.018641528
 C       -7.016463750    11.950762627     2.781414006
 C       -7.228950160    11.104438013     3.880499227
 C       -8.389920646    11.181652582     4.631550821
 C       -9.326324180    12.212001731     4.391543661
 C       -9.099509412    13.079998056     3.306022225
 C       -7.981081025    12.919246901     2.497822920
 N      -10.502377333    12.285287292     5.156661592
 C      -10.429099062    11.902069643     6.581595879
 C      -11.380080051    13.443654093     4.918046153
 C       -9.197550250    12.359044051     7.384390477
 C       -9.056586738    13.877320857     7.612826133
 N       -7.879693747    14.545252243     6.992905400
 C       -6.763846262    13.697572163     6.763576220
 C       -6.219318129    13.010381326     7.867865354
 C       -5.130020985    12.170694913     7.698131409
 C       -4.540917740    11.996100992     6.436799335
 C       -5.063464600    12.706495742     5.354383167
 C       -6.142148300    13.568822888     5.513795206
 C       -8.248970137    15.424633345     5.870135248
 C       -3.391210381    11.098680944     6.304373722
 C       -2.756699958    10.862249044     5.148250894
Si       -1.320210916     9.746728715     4.958729612
 C       -0.271199683     9.640718313     6.462450843
 C       -0.202809813    10.715915747     7.357458783
 C        0.592570656    10.635585060     8.497644782
 C        1.348120703     9.486549877     8.765177268
 C        1.285329555     8.418824418     7.865291426
 C        0.487522711     8.494685700     6.724595248
 C        2.166568012     9.449031294     9.972749496
 C        2.932338670     8.409400335    10.345181467
 C        3.751359346     8.369887067    11.552115480
 C        3.817262486     9.434639531    12.454458797
 C        4.614081889     9.353512898    13.596492026
 C        5.368023260     8.205189526    13.857706602
 C        5.304105294     7.135940585    12.953894275
 C        4.504086343     7.217879891    11.817749447
Si        6.424645137     8.081728561    15.359954175
 C        6.632655795     9.738796402    16.191197202
 C        5.629800473     6.872959684    16.597183669
 C        8.119762645     7.388722867    14.840244247
 C       -2.034017893     8.025174782     4.553937269
 C       -0.281703270    10.320464715     3.474660336
 C       -2.685058566    13.713429820     0.689343902
 C       -4.321486241    12.947404246    -1.815016598
 C       -0.581704212    -0.939358856    -1.551002061
 C       -0.672410469    -0.885803457     1.543739082
 H        1.259913217     2.724387418    -0.044370046
 H        0.327338606     4.965579416    -0.040087459
 H       -3.662430557     3.351781040     0.028351261
 H       -2.771565614     1.088815286     0.056744488
 H       -3.421978357     5.674951176    -0.000822992
 H       -0.532726061     6.787277092    -0.033551536
 H       -0.280025457     9.100657080    -0.041802132
 H       -1.153925209    11.368741974    -0.046633857
 H       -5.201591406     9.764615468     0.011038523
 H       -4.281339389     7.513588259    -0.013843972
 H       -6.166985329    13.373826665     0.604213365
 H       -5.105433457    11.042118997     2.393971948
 H       -6.483444443    10.345775565     4.130774316
 H       -8.569702112    10.451605347     5.415785689
 H       -9.802852548    13.870307176     3.067450450
 H       -7.852321373    13.582664013     1.641200316
 H      -12.297813264    13.348480472     5.522700916
 H      -11.703061167    13.443515045     3.860372395
 H      -10.908219294    14.412028817     5.148195399
 H       -9.015345529    16.140148262     6.211311781
 H       -8.627714702    14.890257723     4.983494934
 H       -7.366296485    16.019591117     5.572369901
 H       -6.661048240    13.146012436     8.851524115
 H       -4.725034675    11.641898239     8.560781944
 H       -4.622562106    12.598464537     4.360302112
 H       -6.524702036    14.095503932     4.642436050
 H       -3.088248862    10.639476274     7.254732317
 H       -3.093625650    11.326994916     4.206788955
 H       -0.765936487    11.641333915     7.195608906
 H        0.628048717    11.478490082     9.185290144
 H        1.863232810     7.515138631     8.049109985
 H        0.480834097     7.628566836     6.056546560
 H        2.120203960    10.354202767    10.585333730
 H        2.978133472     7.504587922     9.732090976
 H        3.242937749    10.341115630    12.272231755
 H        4.624092694    10.218309760    14.265658838
 H        5.872081799     6.213746458    13.105797542
 H        4.466220209     6.376674910    11.128304984
 H      -11.354736253    12.244855428     7.094747439
 H      -10.467891845    10.783228521     6.602736789
 H       -9.228326086    11.852658987     8.370640912
 H       -8.282320983    11.951625982     6.905167697
 H       -9.985679594    14.394918156     7.296665591
 H       -8.954798417    14.070836991     8.708633575
 H        2.263829195    -1.030542577     0.008666505
 H        2.265608862     0.515625522     0.891781979
 H        2.271729706     0.505976948    -0.893792876
 H        7.309732650     9.665703608    17.060931215
 H        5.669164254    10.139013786    16.552477860
 H        7.066245529    10.479349099    15.494737191
 H        6.290641911     6.894811796    17.511534941
 C        4.214744702     7.308195389    17.020425567
 C        5.567450052     5.421208692    16.089756544
 H        7.914242676     6.373020098    14.392586735
 C        8.801788891     8.249332646    13.761298631
 C        9.092363896     7.196756366    16.017503089
 H       -1.159387588     7.386413091     4.240576652
 C       -2.702162375     7.361043562     5.770951031
 C       -3.042613175     8.060879886     3.394418559
 H       -1.009424806    10.454418566     2.619021662
 C        0.415452492    11.667401774     3.734894147
 C        0.772547610     9.290107494     3.032724463
 H       -1.751672539    13.610006423     0.064643743
 C       -3.166103866    15.172142260     0.582711794
 C       -2.320059699    13.420032138     2.153883510
 H       -4.732544707    13.997032979    -1.776957221
 C       -3.074779186    12.954384486    -2.716341071
 C       -5.391207702    12.039025514    -2.446647255
 H       -0.022135283    -1.919523230    -1.533107958
 C       -2.087507280    -1.255785231    -1.573885777
 C       -0.214756238    -0.202999983    -2.852693999
 H       -1.796894292    -0.865075131     1.443115765
 C       -0.233160356    -2.356952321     1.648361258
 C       -0.304718879    -0.157959682     2.849572919
 H        4.182873445     8.306505864    17.475441877
 H        3.816716987     6.614206649    17.774520710
 H        3.498206811     7.299745627    16.186384214
 H        6.551964973     5.001386556    15.847831957
 H        4.923902679     5.305325781    15.206305559
 H        5.139539311     4.770313128    16.866158918
 H        8.184916120     8.386019725    12.861449206
 H        9.730879622     7.766974088    13.425793498
 H        9.084457168     9.246862896    14.122919040
 H        8.698254550     6.542408698    16.805704470
 H        9.388573614     8.144438604    16.486516998
 H       10.021019631     6.725867001    15.663524877
 H       -2.027982085     7.241783861     6.629757318
 H       -3.044308479     6.350684090     5.505888788
 H       -3.589907170     7.906812041     6.121165450
 H       -2.636777727     8.506700626     2.474311370
 H       -3.965925238     8.600551809     3.645917101
 H       -3.342865889     7.038189831     3.125252015
 H       -0.272110172    12.466943840     4.043410109
 H        0.911100366    12.019746610     2.819515822
 H        1.200323186    11.597376809     4.501600930
 H        0.334243842     8.338839446     2.702072576
 H        1.511022874     9.066672997     3.814830801
 H        1.342319586     9.679446125     2.176888813
 H       -3.360734732    15.494217730    -0.447723020
 H       -2.393728417    15.851173190     0.972476536
 H       -4.071977648    15.368510115     1.173539113
 H       -1.917107152    12.408407627     2.304379189
 H       -3.169340662    13.550051951     2.840692162
 H       -1.540862157    14.115460245     2.497184438
 H       -2.296906945    13.651495543    -2.379397702
 H       -3.347974920    13.268701110    -3.734219167
 H       -2.613728576    11.961355604    -2.817212180
 H       -6.337818175    12.026744999    -1.889212515
 H       -5.056676247    10.997372034    -2.556400319
 H       -5.634347210    12.390668213    -3.459449645
 H       -2.432586640    -1.809939948    -0.691981437
 H       -2.323309549    -1.887134583    -2.443236802
 H       -2.710245645    -0.356228347    -1.673635509
 H        0.859715390    -0.002691822    -2.954485319
 H       -0.742023967     0.755510823    -2.963768027
 H       -0.497112390    -0.812552164    -3.722972808
 H       -0.527419228    -2.961492389     0.780679234
 H       -0.703347139    -2.827528094     2.524183432
 H        0.850473263    -2.471815678     1.783763234
 H       -0.638454717     0.889361902     2.871201901
 H        0.773323087    -0.166623912     3.057513288
 H       -0.788888464    -0.651063439     3.704660165

