187   

Si        0.000000000     0.000000000     0.000000000
 C        1.864579437     0.000000000     0.000000000
 C       -0.648118860     1.723715627     0.000000000
 C        0.050245784     2.736262857     0.666903079
 C       -0.431204964     4.044854942     0.673442569
 C       -1.616111493     4.373667453     0.010054144
 C       -2.315525653     3.357803580    -0.655149935
 C       -1.841875024     2.048547654    -0.656328305
 C       -2.159993036     5.726103377    -0.012127994
 C       -1.604369080     6.793770159     0.586045542
 C       -2.169462849     8.139094259     0.548933212
 C       -1.503054690     9.179233860     1.209886567
 C       -2.013360678    10.475494043     1.195491886
 C       -3.210460575    10.760672222     0.527088291
 C       -3.878014871     9.721905921    -0.131388237
 C       -3.360888251     8.427966039    -0.121943216
Si       -3.912711482    12.465290372     0.489036130
 C       -5.607408036    12.354852146    -0.198542070
 C       -6.080514938    13.118546702    -1.193224108
 C       -7.433698849    13.030457327    -1.742337082
 C       -7.799521346    13.892245268    -2.785534216
 C       -9.066963396    13.855100302    -3.345685026
 C      -10.046425688    12.976789591    -2.833947445
 C       -9.682716862    12.117651113    -1.771877171
 C       -8.397230830    12.142973355    -1.252546044
 N      -11.327610667    12.917290894    -3.375766312
 C      -11.769367742    13.882216603    -4.389460932
 C      -12.384158432    12.306940822    -2.561960275
 C      -11.748949450    15.361665767    -3.956387742
 C      -13.120975475    16.061930119    -3.997888075
 N      -13.969152840    15.921483440    -2.789452842
 C      -13.229239128    15.924237680    -1.577865579
 C      -12.426250087    17.053210144    -1.316127749
 C      -11.679333862    17.119670992    -0.152634550
 C      -11.692915961    16.064407713     0.772012903
 C      -12.509971329    14.960904010     0.519613702
 C      -13.298993230    14.900008385    -0.624149055
 C      -15.004876289    14.885439920    -2.920684737
 C      -10.885176122    16.184571838     1.986921088
 C      -10.825084104    15.239762437     2.933104757
Si       -9.840002196    15.328730459     4.466415537
 C       -8.873936443    13.770847408     4.606716702
 C       -8.412415730    13.136273941     3.447070953
 C       -7.678086798    11.954008396     3.532272087
 C       -7.383803188    11.388731705     4.776057231
 C       -7.844813465    12.029093486     5.934356280
 C       -8.582581982    13.206576340     5.853143910
 C       -6.621524478    10.156400885     4.931491585
 C       -6.106681511     9.416413030     3.934527007
 C       -5.349823174     8.187335560     4.154611754
 C       -5.106139297     7.690018383     5.438004506
 C       -4.381088134     6.514705204     5.623633483
 C       -3.864918040     5.819258107     4.525926090
 C       -4.094927466     6.322484849     3.238483075
 C       -4.824913039     7.494740182     3.056580526
Si       -2.908188797     4.267776801     4.776234993
 C       -2.682948875     3.879026314     6.588379720
 C       -3.768328429     2.780962945     3.957930181
 C       -1.223275459     4.534178620     3.937968199
 C       -8.646719532    16.808438079     4.454751086
 C      -11.022704956    15.516706627     5.943734705
 C       -3.914526953    13.238937610     2.228998948
 C       -2.821663234    13.557553867    -0.626872689
 C       -0.654343678    -0.929188681    -1.526928452
 C       -0.657739267    -0.890978330     1.549007098
 H        0.987016089     2.542018676     1.196733472
 H        0.136747792     4.815948184     1.193126568
 H       -3.241190284     3.591107477    -1.177989084
 H       -2.433623682     1.298741480    -1.188177609
 H       -3.091793198     5.830124653    -0.576988149
 H       -0.674551881     6.698915464     1.153782568
 H       -0.577546444     8.974618091     1.744263093
 H       -1.451087604    11.247928173     1.727512620
 H       -4.813234597     9.884313269    -0.677522986
 H       -3.897410515     7.640662469    -0.648321462
 H       -6.242101628    11.598326701     0.288774012
 H       -5.473662190    13.890576483    -1.685847074
 H       -7.070340362    14.601524897    -3.179193100
 H       -9.295169814    14.513880497    -4.175510924
 H      -10.402295398    11.421385672    -1.354588302
 H       -8.142596540    11.461075133    -0.438957861
 H      -13.378358798    12.474234691    -3.005340969
 H      -12.396799160    12.700598418    -1.528689592
 H      -12.225288432    11.211905266    -2.522700663
 H      -15.633722006    15.123334104    -3.796756023
 H      -15.667788758    14.918010892    -2.037197432
 H      -14.616645917    13.862017866    -3.036207865
 H      -12.406967122    17.874843984    -2.028139596
 H      -11.068029621    18.001383947     0.041397800
 H      -12.545359125    14.133651124     1.230495396
 H      -13.952249975    14.046462411    -0.773210194
 H      -10.330801325    17.129643793     2.048300850
 H      -11.398062873    14.301477099     2.839828165
 H       -8.613381108    13.536569910     2.446231599
 H       -7.335249055    11.472458841     2.617157229
 H       -7.625956698    11.602808951     6.911344226
 H       -8.916585399    13.660363891     6.789666462
 H       -6.482165598     9.845975946     5.972741064
 H       -6.232467769     9.705335552     2.887647544
 H       -5.489342269     8.215214736     6.310980658
 H       -4.233621545     6.172466134     6.651231998
 H       -3.700532215     5.828825153     2.343547302
 H       -4.977245224     7.879871603     2.048198172
 H      -11.107159104    13.745851229    -5.280004935
 H      -12.787795759    13.592723287    -4.731994334
 H      -11.300627185    15.446084691    -2.943151263
 H      -11.052533911    15.924697193    -4.608374893
 H      -12.958948212    17.160564640    -4.127427791
 H      -13.695241928    15.734682040    -4.889762485
 H        2.263931112    -1.029518324    -0.024851638
 H        2.277811135     0.496034656     0.895395753
 H        2.256476956     0.530294050    -0.887376207
 H       -2.092399495     2.956038156     6.726204418
 H       -3.651830762     3.732830370     7.096710474
 H       -2.148335316     4.694257132     7.107484510
 H       -3.155467841     1.880570783     4.254925950
 C       -5.203785321     2.574599285     4.476636671
 C       -3.804696202     2.838547661     2.422451639
 H       -1.464041437     4.658583841     2.839517218
 C       -0.512238626     5.814868486     4.409823418
 C       -0.265733639     3.340775748     4.086994122
 H       -9.290193345    17.724799101     4.315710382
 C       -7.871558215    16.965001099     5.775640603
 C       -7.636884410    16.751174891     3.294729796
 H      -10.369857712    15.552948875     6.863369906
 C      -11.845115466    16.816700288     5.894355404
 C      -11.983750741    14.323048480     6.088563031
 H       -2.897561750    13.715908438     2.345150275
 C       -4.976713671    14.340629891     2.389279112
 C       -4.079515306    12.224628236     3.370977214
 H       -3.355651455    14.548299272    -0.704965904
 C       -1.415277718    13.821884011    -0.059798542
 C       -2.670253886    12.977029077    -2.045418232
 H       -1.779894775    -0.913965294    -1.442606962
 C       -0.268007430    -0.241457736    -2.849142823
 C       -0.210160603    -2.402074127    -1.585589485
 H       -0.370958921    -1.974843131     1.424626931
 C       -0.025025724    -0.380056850     2.855422495
 C       -2.189656753    -0.811171534     1.679994037
 H       -5.261099073     2.442403401     5.564399026
 H       -5.637870165     1.667554847     4.032921091
 H       -5.876213704     3.401515775     4.206956274
 H       -2.805696358     2.896055821     1.964126085
 H       -4.397032642     3.679305350     2.037076604
 H       -4.269899061     1.927255980     2.020854163
 H       -1.121927951     6.720699669     4.276471203
 H        0.406961600     5.972336351     3.828873158
 H       -0.209882677     5.773882469     5.463986870
 H       -0.679011534     2.407501120     3.677274133
 H        0.027752289     3.151596341     5.127248249
 H        0.664095858     3.532540225     3.532413218
 H       -8.520716122    17.126088771     6.645539129
 H       -7.209786405    17.841525384     5.721814094
 H       -7.222717392    16.105303604     5.996249009
 H       -8.104886934    16.667452948     2.304136697
 H       -6.927785384    15.915950256     3.392629656
 H       -7.032618537    17.668617119     3.274401609
 H      -11.226320600    17.723185980     5.885951106
 H      -12.485854470    16.890995317     6.784628316
 H      -12.518607926    16.864897728     5.026731240
 H      -11.470115432    13.354279017     6.162512484
 H      -12.705128802    14.253445045     5.262767606
 H      -12.577425703    14.426540606     7.007909700
 H       -4.902245871    15.138126882     1.640001849
 H       -4.867446997    14.823702634     3.371273548
 H       -6.004255466    13.944992464     2.356094064
 H       -3.350108194    11.404297374     3.347728912
 H       -5.079795898    11.770248289     3.397372151
 H       -3.950262370    12.723314231     4.342151348
 H       -1.422829122    14.331916150     0.911697716
 H       -0.853330996    14.476359284    -0.742083930
 H       -0.817203399    12.905945786     0.044516158
 H       -3.627311024    12.785166548    -2.549397968
 H       -2.100928816    12.036420968    -2.060141873
 H       -2.119875741    13.680526421    -2.685413716
 H       -0.585215548     0.809420907    -2.904703810
 H       -0.748921865    -0.752883831    -3.695138502
 H        0.812243338    -0.269449340    -3.045793742
 H       -0.524349355    -2.986979652    -0.711638851
 H        0.876361843    -2.518639577    -1.693437775
 H       -0.659698691    -2.894420722    -2.460358510
 H        1.066376520    -0.490322252     2.882173076
 H       -0.412262243    -0.953552338     3.710016319
 H       -0.261782772     0.674836617     3.060341693
 H       -2.725425739    -1.219847815     0.814320632
 H       -2.549917192     0.216408193     1.841930672
 H       -2.523984987    -1.394096930     2.550245011

