187   

Si        0.000000000     0.000000000     0.000000000
 C        1.865256051     0.000000000     0.000000000
 C       -0.678308018     1.711450299     0.000000000
 C        0.128135104     2.807338658    -0.322936861
 C       -0.396551503     4.099727382    -0.319691973
 C       -1.737745518     4.325609000     0.000310546
 C       -2.545637473     3.225970239     0.319748527
 C       -2.024661488     1.935097994     0.318785773
 C       -2.330025374     5.659033221     0.016679763
 C       -1.668748770     6.793946807    -0.267320893
 C       -2.262689152     8.126667856    -0.250455941
 C       -1.457329857     9.228002896    -0.567890888
 C       -1.980872534    10.518851089    -0.564782425
 C       -3.321777694    10.740476155    -0.231090288
 C       -4.127841329     9.641060796     0.087723155
 C       -3.604312697     8.349542300     0.073007689
Si       -4.047029932    12.430102478    -0.216376340
 C       -5.311301908    12.609623128     1.096256797
 C       -5.265869335    11.922173835     2.245222977
 C       -6.251868796    12.031658460     3.322550454
 C       -6.069518736    11.244660172     4.470066037
 C       -6.968559439    11.304393423     5.522805886
 C       -8.081345706    12.160165116     5.446668193
 C       -8.282339559    12.931937766     4.297194583
 C       -7.382147170    12.848473515     3.238496253
 N       -8.957098073    12.157667913     6.579183778
 C       -8.394192348    12.916520516     7.720472546
 C      -10.352657196    12.523537476     6.279721160
 C       -8.386090354    14.446477165     7.534808908
 C       -7.086315922    15.119019180     8.015657222
 N       -5.971010835    15.126182853     7.045710588
 C       -6.273267444    15.570956944     5.743611080
 C       -7.221649576    16.600342882     5.558302124
 C       -7.529951812    17.048910715     4.284507428
 C       -6.885141265    16.526376374     3.154925099
 C       -5.914792552    15.538948574     3.343872588
 C       -5.591211816    15.081142768     4.614156830
 C       -5.104075228    13.939442302     7.145792469
 C       -7.252161569    17.038838357     1.835117423
 C       -6.709177850    16.620743288     0.683825298
Si       -7.179932631    17.272412254    -0.957578800
 C       -7.730963849    19.023637424    -0.879267755
 C       -7.157261200    19.891621426     0.057258269
 C       -7.562964066    21.222981092     0.130803790
 C       -8.539823182    21.720669370    -0.736402881
 C       -9.106647836    20.852460914    -1.678315193
 C       -8.706781172    19.520189972    -1.751261199
 C       -8.995295281    23.106340712    -0.695873831
 C       -8.534796827    24.038097917     0.156011944
 C       -8.989908670    25.423852578     0.196960327
 C       -9.969524101    25.921566557    -0.666079643
 C      -10.375032397    27.254103029    -0.592153910
 C       -9.813253798    28.117288806     0.353947956
 C       -8.830869663    27.620274236     1.221260151
 C       -8.423490992    26.291609971     1.140539361
Si      -10.338781496    29.878250934     0.462924264
 C      -11.931731655    30.176273781    -0.460703273
 C      -10.550568267    30.330476901     2.299931823
 C       -8.980520069    30.986997183    -0.277918828
 C       -5.681350094    17.131610556    -2.119179149
 C       -8.582175697    16.173703793    -1.631168327
 C       -2.660975166    13.693881967     0.120270032
 C       -4.851477958    12.823698174    -1.889998453
 C       -0.615491725    -0.919851347    -1.548484880
 C       -0.655663627    -0.907399620     1.539709067
 H        1.184569415     2.693658276    -0.581281666
 H        0.253139343     4.935889973    -0.571799254
 H       -3.593304719     3.379762569     0.571725747
 H       -2.702911203     1.116845185     0.576809299
 H       -3.390532182     5.684973005     0.284697471
 H       -0.608742377     6.768455305    -0.536069690
 H       -0.410277195     9.076691106    -0.823263874
 H       -1.305015194    11.336882018    -0.828201073
 H       -5.184611649     9.753890374     0.354196094
 H       -4.253116695     7.511136461     0.320504684
 H       -6.116112746    13.330548865     0.886475316
 H       -4.466398751    11.200891573     2.471982900
 H       -5.211439894    10.575319231     4.536631538
 H       -6.835045119    10.679597983     6.403953154
 H       -9.135481882    13.600750930     4.221215483
 H       -7.558703011    13.451908721     2.345942162
 H      -10.970611514    12.292443185     7.164626224
 H      -10.719747523    11.895250145     5.449085180
 H      -10.508328113    13.580176739     6.014517384
 H       -4.960083118    13.661817480     8.202017270
 H       -4.105786371    14.191100900     6.742171324
 H       -5.494416791    13.061089811     6.601759873
 H       -7.716208533    17.047637418     6.415210098
 H       -8.280069768    17.831656175     4.164262500
 H       -5.387484479    15.116449434     2.485220950
 H       -4.829835152    14.312403634     4.712038487
 H       -8.022965949    17.821807735     1.877288975
 H       -5.946081601    15.827914890     0.665018161
 H       -6.384144860    19.559236529     0.758940682
 H       -7.107021862    21.876316972     0.872699841
 H       -9.868342832    21.219938673    -2.363193544
 H       -9.184691680    18.890739045    -2.506595156
 H       -9.766614732    23.356086017    -1.430204471
 H       -7.762967997    23.788213749     0.890093734
 H      -10.425978174    25.269294070    -1.408282902
 H      -11.144283837    27.585764952    -1.294960428
 H       -8.356692967    28.248395096     1.980773054
 H       -7.657618498    25.924487556     1.821251527
 H       -8.987761725    12.640676259     8.620132718
 H       -7.364099971    12.538674040     7.903745565
 H       -8.553493271    14.692340638     6.464628518
 H       -9.245317123    14.891867342     8.068339547
 H       -7.294943083    16.185854168     8.273086853
 H       -6.735902863    14.650308514     8.961016571
 H        2.262952018    -1.029908951     0.039087478
 H        2.261067648     0.542119982     0.878060631
 H        2.275216293     0.480236868    -0.905669936
 H      -12.262698791    31.224937991    -0.355491599
 H      -12.741146183    29.532331136    -0.071268886
 H      -11.825063877    29.968240994    -1.539693407
 H       -9.536793497    30.182416603     2.774036165
 C      -10.966790803    31.794633373     2.527503624
 C      -11.547855545    29.407289706     3.023008694
 H       -9.381912502    32.040082276    -0.222475416
 C       -7.654994971    30.941061346     0.503170724
 C       -8.694257411    30.662729216    -1.755589891
 H       -5.341438595    16.056163405    -2.062113023
 C       -6.017429322    17.442896088    -3.587679703
 C       -4.513274185    18.029070244    -1.672723706
 H       -8.826990929    16.572276098    -2.657124719
 C       -8.182765072    14.695134681    -1.778141107
 C       -9.852411322    16.261978726    -0.766008315
 H       -1.900430610    13.536152769    -0.698151463
 C       -3.117503883    15.160160599     0.061326548
 C       -1.970097618    13.444599772     1.473358197
 H       -5.294578687    13.857758253    -1.785273091
 C       -3.848576920    12.854207267    -3.055802116
 C       -5.991326504    11.848407410    -2.233399204
 H       -0.125667781    -1.935817763    -1.514789784
 C       -2.140395689    -1.127169385    -1.575481388
 C       -0.188320116    -0.227402046    -2.855669658
 H       -1.779896167    -0.917580385     1.437471525
 C       -0.179387665    -2.367416308     1.640901177
 C       -0.308748174    -0.174607280     2.848354032
 H      -10.260665508    32.518672877     2.100821510
 H      -11.012031646    32.008505003     3.605352195
 H      -11.963507576    32.023767157     2.127808611
 H      -11.285160205    28.342182799     2.949416413
 H      -12.577854863    29.519305787     2.659290408
 H      -11.571309733    29.644159927     4.096257410
 H       -7.754638463    31.259014131     1.548691727
 H       -6.924828591    31.623429615     0.043924206
 H       -7.188796563    29.945621588     0.495338076
 H       -9.576051207    30.758785700    -2.401973104
 H       -8.284230688    29.652641057    -1.899476523
 H       -7.943206183    31.358957039    -2.155687415
 H       -6.777157536    16.774171060    -4.011934560
 H       -5.120629031    17.323582025    -4.212836497
 H       -6.359188628    18.476443892    -3.739748007
 H       -4.176466604    17.830693546    -0.645579263
 H       -4.749285772    19.100947320    -1.740261451
 H       -3.642022159    17.867390512    -2.322889948
 H       -7.334691318    14.539496343    -2.458202046
 H       -9.019793846    14.120123033    -2.199214920
 H       -7.936774496    14.219965279    -0.817528163
 H      -10.241607437    17.284330244    -0.664262456
 H       -9.706919102    15.861801660     0.248329727
 H      -10.660678392    15.671291053    -1.218855727
 H       -3.552621369    15.440695071    -0.907237559
 H       -2.257253570    15.828350290     0.213267744
 H       -3.841420114    15.416721776     0.847821411
 H       -1.553079004    12.433304827     1.573140739
 H       -2.637992480    13.612541731     2.331161699
 H       -1.125800474    14.136748360     1.599765558
 H       -3.053576137    13.600130433    -2.927765001
 H       -4.365320058    13.114922605    -3.990932712
 H       -3.368600298    11.881733616    -3.234709811
 H       -6.787877330    11.823984974    -1.476794919
 H       -5.642157746    10.816370195    -2.380268722
 H       -6.470624626    12.143801691    -3.177578176
 H       -2.516206371    -1.705930860    -0.722295749
 H       -2.426878104    -1.689165200    -2.476434335
 H       -2.699674842    -0.181743433    -1.615379002
 H        0.899018075    -0.116267701    -2.955555936
 H       -0.637625472     0.768734031    -2.977701646
 H       -0.516867749    -0.820565590    -3.721130076
 H       -0.454675275    -2.976018805     0.769907800
 H       -0.641240053    -2.853022627     2.512910942
 H        0.906200155    -2.455139377     1.780769574
 H       -0.668475956     0.864055778     2.872462483
 H        0.769092226    -0.155921258     3.057308536
 H       -0.780471239    -0.682654622     3.701508592

