187   

Si        0.000000000     0.000000000     0.000000000
 C        1.865121481     0.000000000     0.000000000
 C       -0.690619863     1.705929473     0.000000000
 C        0.110832958     2.815664546    -0.285035647
 C       -0.430165178     4.101618640    -0.280386747
 C       -1.782786822     4.306276911     0.003023542
 C       -2.585584097     3.192499016     0.284878154
 C       -2.048448818     1.908622171     0.282978231
 C       -2.395480547     5.630105235     0.020254672
 C       -1.748541844     6.781548967    -0.228084199
 C       -2.373520973     8.100269814    -0.207650038
 C       -1.588102055     9.226486115    -0.484618291
 C       -2.144507217    10.503788270    -0.475749667
 C       -3.499260675    10.685331749    -0.175310382
 C       -4.285853716     9.561050876     0.103371806
 C       -3.728963401     8.283937339     0.081808223
Si       -4.274703028    12.353563947    -0.152295606
 C       -5.568892845    12.470703330     1.134408692
 C       -5.547988807    11.776210985     2.280240055
 C       -6.578287800    11.862670760     3.316024312
 C       -6.439103014    11.080921251     4.473202021
 C       -7.384360784    11.124495959     5.483707249
 C       -8.493517981    11.992550775     5.386293415
 C       -8.635674960    12.774799475     4.226659722
 C       -7.698966992    12.688399125     3.203326299
 N       -9.437195035    12.012174064     6.432614513
 C       -8.888328445    12.004109991     7.801673709
 C      -10.585184139    12.919345006     6.277011378
 C       -7.858209116    13.121811059     8.067329262
 C       -7.783507836    13.488949464     9.561051849
 N       -8.556635007    14.696763430     9.938397626
 C       -9.925635969    14.619720885     9.551985599
 C      -10.723674217    13.658199520    10.201996051
 C      -12.063337182    13.530917707     9.873414522
 C      -12.653071080    14.368287662     8.913720644
 C      -11.861283580    15.335099447     8.290189277
 C      -10.513997613    15.472064513     8.608209252
 C       -7.864401162    15.942702555     9.561516148
 C      -14.073687813    14.194101456     8.601057381
 C      -14.732774365    14.937740522     7.703852530
Si      -16.499076980    14.781413273     7.260146255
 C      -16.632703105    14.699244595     5.427340028
 C      -15.538469203    14.268122262     4.669110872
 C      -15.624268566    14.200454956     3.279382532
 C      -16.805807220    14.549099669     2.619212413
 C      -17.902107168    14.973142748     3.382111545
 C      -17.818912020    15.046685725     4.770410217
 C      -16.939925957    14.493247271     1.167232910
 C      -15.967655223    14.105587301     0.324381087
 C      -16.099411326    14.048931266    -1.127661526
 C      -17.276926624    14.400941654    -1.792127049
 C      -17.358969014    14.331743090    -3.182850901
 C      -16.264573392    13.901727791    -3.939606804
 C      -15.082496522    13.547050127    -3.275209567
 C      -15.001871028    13.622313083    -1.887603004
Si      -16.356438851    13.804703204    -5.775686484
 C      -18.113430857    13.955657957    -6.383822165
 C      -15.322820560    15.209616296    -6.538005582
 C      -15.612094074    12.140255593    -6.322605185
 C      -17.268072126    13.215006008     8.013129166
 C      -17.434067398    16.302462960     7.912940791
 C       -2.961416179    13.691886439     0.168560292
 C       -5.078089592    12.679560452    -1.845474594
 C       -0.608348218    -0.925428052    -1.548569697
 C       -0.653449511    -0.907142031     1.541193947
 H        1.175477709     2.717650792    -0.514030525
 H        0.215357718     4.949359220    -0.502275299
 H       -3.642008654     3.330085521     0.508159168
 H       -2.723649036     1.079013200     0.511408268
 H       -3.463884832     5.634114457     0.257894615
 H       -0.681388643     6.782058733    -0.466355554
 H       -0.531057526     9.105637991    -0.712695912
 H       -1.484096449    11.343817677    -0.706440312
 H       -5.351720813     9.643225692     0.344015659
 H       -4.362898109     7.425732366     0.297848915
 H       -6.379622430    13.179385147     0.909767097
 H       -4.743828978    11.068831653     2.530313243
 H       -5.578418608    10.418642953     4.575481150
 H       -7.272241036    10.483939842     6.354082165
 H       -9.475221215    13.453331220     4.113592926
 H       -7.839477000    13.293920138     2.307113273
 H      -11.295302653    12.763128804     7.110954830
 H      -11.125898481    12.670988143     5.346558981
 H      -10.311568505    13.986793808     6.266252818
 H       -6.900215987    15.982431014    10.098875841
 H       -8.457074117    16.809764980     9.901624123
 H       -7.665429675    16.047544267     8.483785545
 H      -10.281782269    13.025372857    10.969176115
 H      -12.668568782    12.777339625    10.377711875
 H      -12.298638337    16.002236645     7.545503673
 H       -9.924375848    16.232579892     8.104162663
 H      -14.550022021    13.389016852     9.174548503
 H      -14.223025331    15.746954511     7.152398831
 H      -14.589662344    13.975587260     5.131469099
 H      -14.758232566    13.867388962     2.709877994
 H      -18.831269456    15.248313823     2.886792428
 H      -18.705290382    15.384880474     5.313766696
 H      -17.918964213    14.797486628     0.785881894
 H      -14.988963602    13.800097334     0.706563763
 H      -18.144766032    14.734564849    -1.226203372
 H      -18.306465828    14.620710476    -3.645997683
 H      -14.195510310    13.202599241    -3.814567070
 H      -14.075110361    13.343201645    -1.389602507
 H       -9.739932655    12.080255776     8.516693847
 H       -8.429464806    11.006271245     7.984314926
 H       -6.864760908    12.806714246     7.697611519
 H       -8.112905232    14.016089187     7.466416235
 H       -8.147773808    12.648125290    10.192970961
 H       -6.725301762    13.653854760     9.862979112
 H        2.262287466    -1.029758948     0.046659290
 H        2.261685043     0.548480178     0.873732408
 H        2.274775726     0.473606731    -0.909345073
 H      -18.164114018    13.855176207    -7.482781890
 H      -18.556353914    14.931555094    -6.118625209
 H      -18.752236616    13.165494748    -5.949061732
 H      -15.473142471    15.127097552    -7.653315803
 C      -15.803399828    16.603184170    -6.093209025
 C      -13.815095681    15.093620239    -6.251179336
 H      -14.542764307    12.145900240    -5.960602720
 C      -16.321201235    10.936803579    -5.675658266
 C      -15.591610281    11.949150230    -7.849533923
 H      -17.062612859    13.268855619     9.121477543
 C      -18.792008959    13.130924845     7.815075176
 C      -16.626750090    11.926103480     7.467042576
 H      -18.515501698    16.146569272     7.629870200
 C      -17.358371454    16.444761368     9.443174336
 C      -16.957234242    17.613101385     7.262076375
 H       -2.209961747    13.600464876    -0.667946491
 C       -3.532393134    15.120999137     0.138735252
 C       -2.223376808    13.477748788     1.502380196
 H       -5.529267972    13.711647762    -1.783018144
 C       -4.067828190    12.668203026    -3.005869135
 C       -6.208556535    11.682264332    -2.156703271
 H       -0.105022767    -1.934795851    -1.517245457
 C       -2.130316022    -1.152980063    -1.574261459
 C       -0.192807956    -0.224749807    -2.855151297
 H       -1.778046961    -0.913199397     1.443090122
 C       -0.181862659    -2.368832019     1.639573041
 C       -0.299264510    -0.176380956     2.849031578
 H      -16.855437808    16.800426934    -6.336096066
 H      -15.219430146    17.383296555    -6.602408780
 H      -15.672873897    16.775858778    -5.015173193
 H      -13.373747780    14.154872324    -6.609150244
 H      -13.575129146    15.194452921    -5.183334533
 H      -13.272689439    15.901594058    -6.763698727
 H      -16.325336546    10.974990430    -4.576828590
 H      -15.806162564    10.004475372    -5.948035966
 H      -17.361974424    10.822642900    -6.006369496
 H      -15.038145048    12.735361716    -8.379081467
 H      -16.596841397    11.894410509    -8.287946044
 H      -15.094944698    11.000886012    -8.102119550
 H      -19.338093638    13.965361165     8.273213842
 H      -19.181738906    12.215986841     8.284995304
 H      -19.084526766    13.077373360     6.756795169
 H      -15.537459951    11.883454895     7.602820676
 H      -16.830066353    11.770086421     6.397441463
 H      -17.037819859    11.049972439     7.988073487
 H      -17.760802708    15.577335255     9.982113054
 H      -17.950978743    17.311273226     9.770309117
 H      -16.335505678    16.617542826     9.807435298
 H      -17.017477259    17.602441586     6.164594148
 H      -15.926507449    17.877127708     7.535640241
 H      -17.587908428    18.449864640     7.595171727
 H       -4.004586145    15.381680472    -0.816967305
 H       -2.724511261    15.851354212     0.290332538
 H       -4.265318389    15.305026525     0.936763066
 H       -1.736789723    12.495633064     1.580389503
 H       -2.881843627    13.588961293     2.376280252
 H       -1.427301118    14.226354113     1.618498779
 H       -3.277109853    13.422221399    -2.902900703
 H       -4.580369205    12.888662559    -3.953394951
 H       -3.582656888    11.690861401    -3.141354045
 H       -7.003107153    11.672477330    -1.398050118
 H       -5.847396957    10.650092612    -2.272514495
 H       -6.692987373    11.945869676    -3.107412968
 H       -2.500816223    -1.722936918    -0.712916066
 H       -2.407792163    -1.732572870    -2.466846680
 H       -2.701054027    -0.215257571    -1.630057735
 H        0.892458043    -0.095291113    -2.955412777
 H       -0.658463268     0.764042694    -2.975901009
 H       -0.511817894    -0.822380646    -3.721080200
 H       -0.459714568    -2.975115303     0.767774450
 H       -0.644624603    -2.854376803     2.511118283
 H        0.903527446    -2.460243109     1.778427204
 H       -0.657097875     0.862906807     2.875690903
 H        0.779460623    -0.159959593     3.053381976
 H       -0.768330661    -0.684336917     3.703702655

