187   

Si        0.000000000     0.000000000     0.000000000
 C        1.865353907     0.000000000     0.000000000
 C       -0.673137806     1.713600866     0.000000000
 C        0.147028278     2.810513277    -0.282408228
 C       -0.373012167     4.104664425    -0.279773630
 C       -1.723179652     4.331743029    -0.000766258
 C       -2.544511661     3.231285615     0.278945058
 C       -2.027929367     1.938542656     0.279274488
 C       -2.309782563     5.667789241     0.012956185
 C       -1.633001749     6.801924242    -0.235313585
 C       -2.216702639     8.139107668    -0.222332030
 C       -3.566556286     8.370215804     0.056255840
 C       -4.082265798     9.665935769     0.057795897
 C       -3.259219168    10.758584688    -0.233085866
 C       -1.905637780    10.530076537    -0.514157233
 C       -1.391617236     9.236335021    -0.503316768
Si       -3.914328015    12.476755127    -0.237719192
 C       -3.059061725    13.533762318    -1.460910833
 C       -2.529746271    13.081277197    -2.605353632
 C       -1.845090653    13.927579448    -3.584487583
 C       -1.332051984    13.333120249    -4.748311981
 C       -0.676417269    14.088035296    -5.705377517
 C       -0.542380106    15.483086547    -5.540055247
 C       -1.050009447    16.080013546    -4.375370547
 C       -1.673306205    15.301308942    -3.405662382
 N        0.135963664    16.207644642    -6.546710337
 C       -0.367171101    16.005352649    -7.925270546
 C        0.455956101    17.612009610    -6.243270867
 C       -1.885189783    15.806352839    -8.065518311
 C       -2.699731192    17.002348486    -7.541015354
 N       -4.112154840    16.671051016    -7.281432181
 C       -4.891973780    16.269041718    -8.379564133
 C       -4.617032650    16.774618436    -9.668606079
 C       -5.382298531    16.381956806   -10.754746017
 C       -6.476010673    15.518994185   -10.599169287
 C       -6.767471503    15.045394116    -9.316807020
 C       -6.000158754    15.414081759    -8.220157009
 C       -4.303550710    15.928665121    -6.023063749
 C       -7.250962370    15.135714873   -11.780281921
 C       -8.312299533    14.319303926   -11.748199598
Si       -9.315603593    13.807016467   -13.186407161
 C       -9.505439540    11.976943450   -13.191063224
 C       -8.628449692    11.172017196   -12.456476177
 C       -8.771191335     9.784887474   -12.459125474
 C       -9.784120784     9.172578646   -13.202054386
 C      -10.657484365     9.981168726   -13.941912373
 C      -10.520690481    11.366813557   -13.938379954
 C       -9.971282788     7.725808090   -13.234711495
 C       -9.207133484     6.839899524   -12.573506825
 C       -9.394668225     5.393221279   -12.606460049
 C      -10.409945916     4.781255590   -13.345936613
 C      -10.553132087     3.393770994   -13.349111246
 C       -9.677906609     2.586553869   -12.615831168
 C       -8.658188479     3.197900756   -11.873544416
 C       -8.521327314     4.583181377   -11.868020045
Si       -9.853554148     0.754200516   -12.609709691
 C      -11.004201255     0.170672860   -13.956995562
 C       -8.126715652    -0.012454221   -12.842149379
 C      -10.544119536     0.189866085   -10.928056279
 C      -11.033576863    14.614270141   -13.049172416
 C       -8.510130685    14.356662172   -14.819045337
 C       -5.773469666    12.472447027    -0.642451736
 C       -3.664113909    13.231625783     1.489882305
 C       -0.614209951    -0.922267016    -1.547479095
 C       -0.659165685    -0.901068124     1.541736026
 H        1.210902949     2.696137199    -0.508161278
 H        0.287633628     4.941315325    -0.499962159
 H       -3.599089569     3.385935126     0.499148347
 H       -2.716644250     1.119845917     0.506238437
 H       -3.377957182     5.696528687     0.246900177
 H       -0.564599288     6.772198636    -0.469124542
 H       -4.229021041     7.535647118     0.277920129
 H       -5.144266324     9.783963504     0.289598673
 H       -1.215071941    11.348212847    -0.745783069
 H       -0.336646198     9.078286008    -0.719924081
 H       -3.020341743    14.601089625    -1.195238926
 H       -2.563221255    12.021906200    -2.897685887
 H       -1.441274623    12.257730187    -4.897610240
 H       -0.254420867    13.608821900    -6.585801654
 H       -0.960117871    17.149399659    -4.213537845
 H       -2.044563282    15.783691013    -2.500394392
 H        1.149725496    17.994970653    -7.012581759
 H        0.994681406    17.663463231    -5.279634536
 H       -0.417524594    18.280684281    -6.197377843
 H       -3.584607676    16.275018451    -5.258968473
 H       -4.173237822    14.838869446    -6.130049321
 H       -5.315941333    16.136167383    -5.632469959
 H       -3.798403955    17.471290856    -9.821017195
 H       -5.135176667    16.765852431   -11.744918623
 H       -7.614118626    14.373273494    -9.166080998
 H       -6.263417045    15.023750962    -7.241969671
 H       -6.872938702    15.583202048   -12.708726142
 H       -8.671479613    13.893604334   -10.796136010
 H       -7.813128312    11.595713899   -11.860595029
 H       -8.080107792     9.179552164   -11.875356727
 H      -11.452796681     9.523704075   -14.526886158
 H      -11.231914686    11.946721328   -14.532757305
 H      -10.805784625     7.386666995   -13.855353587
 H       -8.372262575     7.178907071   -11.952980172
 H      -11.102101263     5.386422004   -13.928492564
 H      -11.366902709     2.973287053   -13.946243454
 H       -7.944342009     2.617659818   -11.281962248
 H       -7.724227950     5.039734331   -11.284080351
 H       -0.037129005    16.853323255    -8.563677298
 H        0.155753851    15.100138315    -8.320378470
 H       -2.135715094    15.618246677    -9.128067842
 H       -2.197222765    14.884411908    -7.533338763
 H       -2.264141271    17.386227281    -6.589914640
 H       -2.656299479    17.853027415    -8.256513301
 H        2.263676067    -1.029107574     0.051555259
 H        2.261284960     0.552677380     0.871425264
 H        2.274675622     0.469312256    -0.911722879
 H      -11.067288367    -0.931985738   -13.976708643
 H      -10.649746137     0.500266561   -14.950592618
 H      -12.028085368     0.559654636   -13.818051870
 H       -7.509319547     0.344805738   -11.967111078
 C       -8.130142188    -1.551362222   -12.818733914
 C       -7.437444913     0.468190725   -14.131994371
 H      -10.681700807    -0.926710919   -11.014568407
 C       -9.594916303     0.462731053    -9.747539394
 C      -11.914981326     0.816518737   -10.613277241
 H      -11.602273122    14.293057640   -13.969153268
 C      -11.815269152    14.130218363   -11.814885587
 C      -10.976484924    16.151879759   -13.036904038
 H       -8.315524222    15.463053965   -14.710788906
 C       -7.162672200    13.655052602   -15.071419012
 C       -9.411719989    14.149771854   -16.048950963
 H       -6.269150342    11.862626234     0.166992066
 C       -6.399992129    13.878301563    -0.628065267
 C       -6.073827110    11.807090271    -1.997505195
 H       -4.087324046    14.276106846     1.439576757
 C       -4.409882972    12.466041212     2.596505734
 C       -2.175893628    13.336322317     1.868950684
 H       -0.119057125    -1.935721623    -1.514884806
 C       -2.138012323    -1.137392520    -1.573737751
 C       -0.192028004    -0.227247126    -2.855082668
 H       -1.783793671    -0.899147609     1.443491354
 C       -0.197891004    -2.366045815     1.640805809
 C       -0.299723913    -0.172264333     2.849205387
 H       -8.545923064    -1.971479071   -11.893843706
 H       -7.100165368    -1.929876802   -12.891967442
 H       -8.678692804    -1.991187566   -13.662111019
 H       -7.346653175     1.562246859   -14.193371712
 H       -7.945871710     0.127182102   -15.043477125
 H       -6.413240870     0.072016538   -14.182448606
 H       -8.616884291    -0.023476666    -9.853043529
 H      -10.032006490     0.072256156    -8.816914970
 H       -9.422919491     1.534969737    -9.577346873
 H      -12.678379441     0.600786345   -11.371714107
 H      -11.867059218     1.908218367   -10.490585087
 H      -12.302964207     0.417321768    -9.665204972
 H      -11.932812310    13.038106975   -11.774554234
 H      -12.832106427    14.547634698   -11.825349043
 H      -11.360275790    14.450722091   -10.867530797
 H      -10.509083897    16.577220323   -13.934263405
 H      -10.443893530    16.553286633   -12.162554144
 H      -11.993788528    16.566242976   -12.993910838
 H       -6.438763697    13.786673678   -14.255527921
 H       -6.688112601    14.062469167   -15.974971739
 H       -7.271127088    12.574043605   -15.241346321
 H      -10.361152558    14.696970880   -15.990737819
 H       -9.643156196    13.091858134   -16.236573243
 H       -8.903126750    14.515221035   -16.952975253
 H       -6.292328842    14.394173012     0.334556926
 H       -7.480962783    13.808998245    -0.818015588
 H       -5.992975738    14.535432246    -1.409350156
 H       -5.710427957    10.772209789    -2.066119274
 H       -5.652699343    12.361562528    -2.848812873
 H       -7.159324609    11.762930633    -2.164211491
 H       -5.496604983    12.432505332     2.447127622
 H       -4.249011932    12.956911547     3.567451368
 H       -4.056107121    11.431691453     2.715332959
 H       -1.582027122    13.919003425     1.151684270
 H       -1.693405371    12.354202703     1.978939501
 H       -2.068577394    13.840746243     2.839789971
 H       -2.512748881    -1.707416549    -0.714233147
 H       -2.420367219    -1.711637505    -2.468241834
 H       -2.701321802    -0.195041108    -1.626088243
 H        0.894410184    -0.107255705    -2.954782865
 H       -0.649119129     0.765215668    -2.977850804
 H       -0.515453575    -0.823683955    -3.720176757
 H       -0.481690715    -2.971246221     0.770183776
 H       -0.662591849    -2.847314308     2.513718552
 H        0.887065746    -2.465208092     1.777884650
 H       -0.649048689     0.869913414     2.875125486
 H        0.779061288    -0.164483810     3.053967677
 H       -0.773213443    -0.675837944     3.704045100

