187   

Si        0.000000000     0.000000000     0.000000000
 C        1.865246245     0.000000000     0.000000000
 C       -0.681964568     1.709014337     0.000000000
 C        0.142333629     2.819962900    -0.203046804
 C       -0.391454601     4.108604979    -0.199912247
 C       -1.761102384     4.312448582    -0.016267072
 C       -2.587125838     3.197731401     0.182238829
 C       -2.054984030     1.912113818     0.196424614
 C       -2.365961779     5.639258881    -0.005164698
 C       -1.695287481     6.792686237    -0.166019718
 C       -2.318266111     8.111460399    -0.151880436
 C       -3.693715251     8.281762282     0.034489818
 C       -4.258273555     9.554446551     0.042912437
 C       -3.455603887    10.688956490    -0.126915373
 C       -2.078556546    10.523534914    -0.311384081
 C       -1.518160456     9.247390050    -0.325270941
Si       -4.243554555    12.349623900    -0.108961051
 C       -3.006048566    13.681211333    -0.308191621
 C       -3.107917602    14.681258967    -1.193479264
 C       -2.123594630    15.751353447    -1.360837232
 C       -2.366691316    16.734242213    -2.332928396
 C       -1.474250847    17.771941525    -2.539508221
 C       -0.323602290    17.891242345    -1.731314147
 C       -0.082252732    16.913208569    -0.751903145
 C       -0.964834486    15.850901695    -0.587966085
 N        0.560713583    18.967010244    -1.977910676
 C       -0.088093130    20.289392145    -2.138238013
 C        1.768562156    19.015199017    -1.137078160
 C       -1.217106463    20.555445150    -1.124063625
 C       -1.277920970    22.000598898    -0.602677141
 N       -0.100612753    22.485614192     0.150970237
 C        0.552951843    21.555517921     0.979689205
 C       -0.224428005    20.687075781     1.777955072
 C        0.387705823    19.760817215     2.603937993
 C        1.785067244    19.708509906     2.721243003
 C        2.550947671    20.596061135     1.963167100
 C        1.952744019    21.514704099     1.108504075
 C        0.751371847    23.403437856    -0.621860458
 C        2.380485664    18.709425548     3.608805562
 C        3.699045715    18.567601343     3.798783283
Si        4.437213722    17.318153684     4.908427745
 C        3.382271051    15.815186959     5.012113005
 C        2.715125288    15.364437498     3.866162318
 C        1.909096516    14.228417908     3.915510241
 C        1.761285772    13.511754376     5.106484855
 C        2.434633995    13.961211607     6.249832237
 C        3.236444935    15.099076418     6.205147106
 C        0.930817065    12.317831372     5.211869957
 C        0.229380942    11.772354241     4.203925924
 C       -0.595863634    10.575670391     4.332986271
 C       -0.729193267     9.881873105     5.539684066
 C       -1.526975303     8.742352348     5.623362440
 C       -2.209098112     8.266445460     4.496903520
 C       -2.071272237     8.956721730     3.288066501
 C       -1.271807060    10.094451914     3.206102311
Si       -3.255678630     6.757718816     4.639924973
 C       -4.292768075     6.817824509     6.189439869
 C       -4.370336493     6.610312281     3.105268950
 C       -2.124453217     5.226223312     4.687453672
 C        6.137875553    16.826364477     4.212381723
 C        4.678460761    18.087913804     6.630805103
 C       -5.569785102    12.472818319    -1.466313192
 C       -5.070427264    12.546211335     1.596830257
 C       -0.604037933    -0.938474063    -1.541267675
 C       -0.660107899    -0.882800775     1.552464690
 H        1.219777078     2.720922997    -0.361074340
 H        0.272781752     4.958257510    -0.348513229
 H       -3.656235927     3.336217053     0.331948783
 H       -2.745539074     1.081088263     0.365538889
 H       -3.450867840     5.641070254     0.142600095
 H       -0.612081726     6.795198481    -0.315568880
 H       -4.340910830     7.415445048     0.164145461
 H       -5.339390341     9.623040902     0.196044449
 H       -1.408287304    11.375559172    -0.459537244
 H       -0.445378724     9.135614920    -0.472462114
 H       -2.150591731    13.614760360     0.382809755
 H       -3.955821113    14.774726720    -1.886448647
 H       -3.263672927    16.672827104    -2.949303509
 H       -1.659146422    18.496636185    -3.327519901
 H        0.788990517    16.976074758    -0.105226736
 H       -0.751139135    15.097691640     0.172165407
 H        2.423677841    19.832984235    -1.479808615
 H        2.336381060    18.075822164    -1.260527286
 H        1.559233832    19.171021530    -0.063577787
 H        0.119835807    24.148916776    -1.135187499
 H        1.385567560    22.905490091    -1.372181992
 H        1.399885065    23.968306144     0.073647381
 H       -1.309580274    20.750707553     1.748469343
 H       -0.229458889    19.075722462     3.188472207
 H        3.639134410    20.579422571     2.040314456
 H        2.584876029    22.184206345     0.535405020
 H        1.635220960    18.069961598     4.103824597
 H        4.424838298    19.226591122     3.299653489
 H        2.795374730    15.885637224     2.905725879
 H        1.394420979    13.900968600     3.013755565
 H        2.331805181    13.416818087     7.186596336
 H        3.736490079    15.401396389     7.129172048
 H        0.909644223    11.866551315     6.208593378
 H        0.245172011    12.216305868     3.204434107
 H       -0.209852251    10.230401805     6.430096710
 H       -1.594756940     8.245576272     6.595172572
 H       -2.574049254     8.632338853     2.369441655
 H       -1.176910052    10.609528704     2.249750907
 H        0.690564503    21.078727104    -2.076249262
 H       -0.484719478    20.335661076    -3.178190838
 H       -2.194699568    20.299281640    -1.578155738
 H       -1.120406530    19.848811014    -0.272599511
 H       -1.480918738    22.693095677    -1.448691296
 H       -2.152091308    22.096700966     0.088771440
 H        2.262855297    -1.029918583     0.039716303
 H        2.262733603     0.542501804     0.877060737
 H        2.273968591     0.479171165    -0.906980278
 H       -4.945929144     5.931234043     6.267181563
 H       -4.941902291     7.712277506     6.194227027
 H       -3.669458085     6.855111969     7.099416809
 H       -3.666688327     6.676507998     2.222006618
 C       -5.119735380     5.269992662     3.004018331
 C       -5.386682849     7.761358958     2.995602989
 H       -2.815752319     4.336463665     4.741994396
 C       -1.255324305     5.081494581     3.427242558
 C       -1.207320152     5.192681948     5.923840847
 H        6.748642665    17.774292470     4.181619041
 C        6.879212112    15.807690342     5.095402154
 C        6.044043205    16.271802272     2.779376968
 H        5.153345790    17.286762815     7.267722261
 C        5.618129307    19.307112676     6.624570315
 C        3.343399098    18.491531062     7.282106357
 H       -5.884725402    13.557419753    -1.481591900
 C       -5.012132404    12.115027217    -2.856387197
 C       -6.830655364    11.628509152    -1.210107357
 H       -5.850833389    11.733139198     1.654211663
 C       -4.086127488    12.339781330     2.760841787
 C       -5.776130626    13.902240846     1.767896539
 H       -0.091582054    -1.943348438    -1.503567221
 C       -2.123532514    -1.182034714    -1.567439156
 C       -0.194466589    -0.242469136    -2.852319268
 H       -1.783181405    -0.904988225     1.439906960
 C       -0.170675065    -2.335228024     1.688164973
 C       -0.333338760    -0.118066297     2.848299546
 H       -4.448658628     4.400920233     2.975523149
 H       -5.707699100     5.236515466     2.075913191
 H       -5.832027851     5.114128063     3.824191870
 H       -4.916525459     8.755861515     2.980905715
 H       -6.126325536     7.758228165     3.806663557
 H       -5.955203382     7.677142526     2.058881900
 H       -1.839293217     5.003054303     2.498957497
 H       -0.655056815     4.162070929     3.483082542
 H       -0.542422129     5.908044165     3.299055655
 H       -1.754198474     5.217598860     6.874273538
 H       -0.476336861     6.013641977     5.933335685
 H       -0.621840785     4.261818397     5.930019128
 H        7.067763325    16.169804910     6.114181450
 H        7.864454276    15.581029384     4.662860312
 H        6.351935188    14.846051225     5.174768672
 H        5.569121910    16.965454428     2.072357204
 H        5.499659060    15.317788309     2.726542119
 H        7.050885446    16.071482035     2.386438773
 H        6.624370866    19.080130256     6.250273422
 H        5.750554939    19.683941752     7.649180764
 H        5.222930571    20.148236528     6.038033435
 H        2.631999422    17.659347663     7.375362860
 H        2.832538907    19.301361992     6.740842684
 H        3.517407149    18.863835476     8.301424157
 H       -4.137115770    12.712833624    -3.147322160
 H       -5.775721484    12.289991290    -3.627136588
 H       -4.726195361    11.056737299    -2.940851560
 H       -7.315480252    11.845883262    -0.249928280
 H       -6.638935477    10.548109218    -1.256644722
 H       -7.582618430    11.835994628    -1.985603268
 H       -3.584179894    11.360080802     2.742760231
 H       -4.620974067    12.383796332     3.720515886
 H       -3.306197683    13.111482410     2.810341433
 H       -6.553759558    14.088732811     1.016719336
 H       -5.079479811    14.752481638     1.743143466
 H       -6.276742143    13.944813148     2.745962454
 H       -2.491273827    -1.740762619    -0.697645561
 H       -2.391795695    -1.780117658    -2.450718872
 H       -2.703382691    -0.251557793    -1.642206450
 H        0.889766296    -0.104391691    -2.953456129
 H       -0.668052531     0.741654188    -2.979385309
 H       -0.508356372    -0.848208042    -3.714518691
 H       -0.426682882    -2.963128873     0.825018387
 H       -0.640021834    -2.809276376     2.562529441
 H        0.913702338    -2.408566089     1.845178022
 H       -0.709072172     0.915400166     2.848177895
 H        0.742532835    -0.079396379     3.064434045
 H       -0.803759036    -0.615973016     3.708119699

