187   

Si        0.000000000     0.000000000     0.000000000
 C        1.865231870     0.000000000     0.000000000
 C       -0.670319329     1.714855149     0.000000000
 C        0.069304015     2.767153520    -0.550363944
 C       -0.437261533     4.066466803    -0.550996441
 C       -1.694823402     4.343333835    -0.008041757
 C       -2.437311852     3.287203885     0.536504510
 C       -1.934672678     1.988772572     0.537619460
 C       -2.265653312     5.685998758     0.013679206
 C       -1.662014003     6.783096375    -0.474080849
 C       -2.234759127     8.125082545    -0.451329782
 C       -3.493457408     8.397051148     0.093066323
 C       -4.003450297     9.694256701     0.094442154
 C       -3.261112152    10.750007486    -0.446438965
 C       -2.000929666    10.481223807    -0.993997638
 C       -1.497100104     9.182641736    -0.998715154
Si       -3.934573943    12.462251652    -0.444483583
 C       -2.591354795    13.661518617    -0.754489203
 C       -2.613620302    14.646640322    -1.661932545
 C       -1.514106598    15.587960018    -1.879044455
 C       -1.654059314    16.579731504    -2.860776834
 C       -0.644245247    17.494878286    -3.106142496
 C        0.578366700    17.416268585    -2.401544342
 C        0.720661902    16.418546815    -1.416994165
 C       -0.320832947    15.539048119    -1.153113879
 N        1.588689334    18.349771547    -2.662139839
 C        1.736468461    18.842612804    -4.040661081
 C        2.849130863    18.217391291    -1.920956337
 C        1.834246499    17.756717307    -5.128428346
 C        3.203721799    17.061186684    -5.219081182
 N        4.337464049    17.896517726    -5.664188124
 C        4.993935942    18.614827163    -4.632227914
 C        5.623640441    17.858918846    -3.622548634
 C        6.283055721    18.496470815    -2.584810902
 C        6.365963229    19.896670085    -2.534390020
 C        5.765927133    20.639232204    -3.553906576
 C        5.098138831    20.013056508    -4.601116067
 C        4.069368407    18.644965979    -6.901473157
 C        7.075346688    20.519642190    -1.414202173
 C        7.218411146    21.842108400    -1.260869590
Si        8.091248050    22.674566533     0.113428627
 C        9.279521845    23.905031674    -0.560683394
 C        9.719542533    23.811553611    -1.885066471
 C       10.620748062    24.743918142    -2.397966872
 C       11.109222099    25.780596384    -1.597924133
 C       10.671279637    25.867556325    -0.269535266
 C        9.768018796    24.941292422     0.245033956
 C       12.052858908    26.777811790    -2.092460310
 C       12.548997830    26.807512136    -3.341095910
 C       13.492580559    27.803713939    -3.837515494
 C       13.979479670    28.843976752    -3.041883978
 C       14.880982788    29.774730865    -3.558183129
 C       15.319658352    29.681386612    -4.882651410
 C       14.832842269    28.638644635    -5.682635704
 C       13.929401611    27.714121934    -5.166184275
Si       16.509148217    30.901511414    -5.579523059
 C       17.290584221    31.940155796    -4.241547647
 C       17.848168825    29.947034642    -6.538389774
 C       15.599543997    32.051239036    -6.793553732
 C        6.797868399    23.561848777     1.190804949
 C        9.030574193    21.422278362     1.192399548
 C       -5.294260120    12.601810109    -1.767111909
 C       -4.698685037    12.829425725     1.259399208
 C       -0.630213472    -0.903790491    -1.551777180
 C       -0.647478222    -0.925320219     1.532730152
 H        1.059283852     2.612912286    -0.988514656
 H        0.159439142     4.867943887    -0.982682324
 H       -3.419843536     3.480408041     0.962933982
 H       -2.561367642     1.205866655     0.973507847
 H       -3.257727723     5.753218846     0.469805559
 H       -0.670209176     6.716414035    -0.930618524
 H       -4.087680325     7.592785705     0.522434287
 H       -4.993160311     9.845934460     0.534093237
 H       -1.380168112    11.268548531    -1.433910002
 H       -0.517174330     8.991335575    -1.431738594
 H       -1.718622928    13.516385328    -0.096210333
 H       -3.469838295    14.823720263    -2.325989015
 H       -2.579969805    16.643854932    -3.433239129
 H       -0.798965779    18.277417035    -3.842591830
 H        1.641827342    16.325294895    -0.851312978
 H       -0.190496501    14.785785074    -0.374144596
 H        3.528086119    19.053116773    -2.174656583
 H        3.383974260    17.274802826    -2.121410929
 H        2.644484679    18.292954302    -0.837141862
 H        3.706962749    17.941906525    -7.671850432
 H        5.016725801    19.074686295    -7.274256959
 H        3.332845059    19.456510501    -6.795484399
 H        5.597956855    16.771996032    -3.672170997
 H        6.758165066    17.898950509    -1.806132964
 H        5.821063768    21.729011925    -3.539397952
 H        4.647305046    20.619341331    -5.381083067
 H        7.488633597    19.790510227    -0.705207922
 H        6.784781271    22.548500748    -1.989176731
 H        9.376709406    23.017629446    -2.556560327
 H       10.944721991    24.653858823    -3.433307464
 H       11.040050485    26.667183476     0.370029686
 H        9.460633407    25.059742687     1.287657418
 H       12.347281894    27.533293130    -1.358188893
 H       12.254655522    26.051383665    -4.075007093
 H       13.656558169    28.936922030    -2.006633889
 H       15.226383769    30.566538309    -2.887626625
 H       15.140856852    28.515336231    -6.724834081
 H       13.561511743    26.912197812    -5.803448247
 H        0.857380457    19.498380869    -4.252843573
 H        2.625457482    19.512621470    -4.088109045
 H        1.060932974    16.979641334    -4.948727454
 H        1.571128329    18.202526378    -6.105959195
 H        3.452812020    16.601268241    -4.236670125
 H        3.134212593    16.215583531    -5.945717623
 H        2.264019308    -1.028570038     0.054881391
 H        2.258439877     0.556351675     0.870605364
 H        2.276867803     0.468251935    -0.910941942
 H       18.033746380    32.640076730    -4.663626212
 H       17.814383123    31.306025973    -3.503288647
 H       16.539679171    32.540395486    -3.698500510
 H       17.304088489    29.387954965    -7.354408764
 C       18.892001527    30.858616385    -7.207809680
 C       18.574978108    28.910698079    -5.662254779
 H       16.366872994    32.807361027    -7.129498087
 C       15.062637662    31.330641369    -8.043075941
 C       14.438921256    32.812728646    -6.127146831
 H        7.370522133    24.026104732     2.045111229
 C        6.074755449    24.690423377     0.434641185
 C        5.750617941    22.602932872     1.783593359
 H        8.272820492    20.641353041     1.491502356
 C       10.165921507    20.721537604     0.423936900
 C        9.611368685    22.037682904     2.478056421
 H       -5.589301554    13.690937222    -1.792092818
 C       -4.791492719    12.207471437    -3.168145539
 C       -6.553320565    11.777037846    -1.445509692
 H       -5.534325216    12.083043401     1.392114788
 C       -3.696439502    12.629267561     2.410227212
 C       -5.300899485    14.241972499     1.357121491
 H       -0.165908232    -1.931449241    -1.520148561
 C       -2.160255426    -1.070467649    -1.577422683
 C       -0.185494783    -0.219557327    -2.857444374
 H       -1.772930375    -0.923503806     1.444502895
 C       -0.185931770    -2.392111680     1.603856121
 C       -0.275742969    -0.219769728     2.849614027
 H       18.453004919    31.582341014    -7.906617066
 H       19.596699268    30.252709937    -7.795871506
 H       19.499113797    31.418259020    -6.483904801
 H       17.894282002    28.186788595    -5.191667511
 H       19.174483514    29.368126490    -4.864054108
 H       19.272731140    28.322067141    -6.274768724
 H       15.844322667    30.827782099    -8.626314548
 H       14.593671777    32.057271609    -8.722597865
 H       14.286625670    30.588883657    -7.807265942
 H       14.752065011    33.422974857    -5.270241323
 H       13.632665297    32.147867319    -5.785238607
 H       13.980920955    33.506237038    -6.846913658
 H        6.758778395    25.440855688     0.013526133
 H        5.407099053    25.234106883     1.118371537
 H        5.442028088    24.321059300    -0.383862311
 H        6.186880834    21.814838623     2.410685535
 H        5.133727945    22.114404268     1.015622464
 H        5.054579033    23.158276404     2.428720936
 H        9.832680572    20.219651209    -0.494539501
 H       10.623530682    19.944387617     1.052178098
 H       10.977853549    21.408963817     0.144774781
 H        8.848955447    22.474090095     3.135744248
 H       10.367904060    22.809988050     2.279313075
 H       10.117478334    21.261103389     3.070148008
 H       -3.912982809    12.779023430    -3.497459440
 H       -5.576273988    12.388113758    -3.915826273
 H       -4.534463461    11.140882501    -3.242821890
 H       -7.030801424    12.061047051    -0.499203233
 H       -6.360104649    10.695556121    -1.415129837
 H       -7.311020364    11.928934325    -2.227969340
 H       -3.254053540    11.623328108     2.432158262
 H       -4.201935618    12.762786443     3.377178751
 H       -2.871828726    13.355023418     2.390688532
 H       -6.089780786    14.431160537     0.617919728
 H       -4.547858701    15.036186101     1.250320724
 H       -5.762853642    14.387172893     2.344010937
 H       -2.550051202    -1.644415639    -0.727219791
 H       -2.463534241    -1.618228586    -2.481485826
 H       -2.694411973    -0.110046797    -1.608073065
 H        0.904290141    -0.135761818    -2.956527331
 H       -0.610647723     0.787311515    -2.977924245
 H       -0.528293121    -0.803097397    -3.723927165
 H       -0.479041421    -2.983266139     0.726684590
 H       -0.642161988    -2.886972070     2.473581679
 H        0.900266940    -2.494054171     1.728269626
 H       -0.616187788     0.824551409     2.894936157
 H        0.804513550    -0.223101601     3.047298112
 H       -0.747003527    -0.734098773     3.699180838

