187   

Si        0.000000000     0.000000000     0.000000000
 C        1.865393175     0.000000000     0.000000000
 C       -0.680657627     1.710231172     0.000000000
 C        0.139853475     2.816486933     0.241590650
 C       -0.389791892     4.106928410     0.238513164
 C       -1.750105155     4.320414917     0.001497847
 C       -2.571686919     3.210468916    -0.237497913
 C       -2.045414358     1.921801690    -0.239110794
 C       -2.348422856     5.651195815    -0.011360558
 C       -1.675492015     6.795443002     0.198236781
 C       -2.274902489     8.125820442     0.185145494
 C       -3.636407362     8.335881977    -0.052344324
 C       -4.168231479     9.624523570    -0.055959680
 C       -3.344214330    10.733160791     0.165602004
 C       -1.979480803    10.527043245     0.402267854
 C       -1.454008604     9.237380064     0.416182274
Si       -4.036158489    12.437473342     0.162823915
 C       -2.704726442    13.641543373    -0.178757688
 C       -2.439021066    14.744504514     0.533140673
 C       -1.358417975    15.681101291     0.219163058
 C       -1.173807358    16.804841446     1.036970551
 C       -0.165628881    17.720255776     0.781644402
 C        0.735744271    17.513638253    -0.284685072
 C        0.551640320    16.384681465    -1.104875322
 C       -0.493165459    15.501931179    -0.863500369
 N        1.755999326    18.451960159    -0.533306114
 C        2.333188428    19.134624064     0.639036343
 C        2.777084289    18.076827091    -1.526790205
 C        3.034088020    18.171920665     1.610903195
 C        3.603880190    18.939743505     2.814382252
 N        4.425941328    18.098001579     3.702028945
 C        5.602682075    17.549562409     3.158079826
 C        6.284091968    18.214017422     2.115900363
 C        7.442666296    17.676589719     1.578464326
 C        7.997607892    16.493543562     2.085776782
 C        7.339771356    15.853168259     3.139443902
 C        6.166889925    16.367660433     3.676191592
 C        3.613040686    17.210279150     4.551875561
 C        9.222804678    15.970734506     1.479825901
 C        9.843018896    14.851939220     1.878761628
Si       11.373879255    14.201474620     1.119344324
 C       12.427816552    15.546207253     0.437374249
 C       12.448216842    16.799433407     1.063941375
 C       13.240507306    17.827406391     0.560178546
 C       14.040988709    17.626736942    -0.572246156
 C       14.025225831    16.373123221    -1.189662377
 C       13.229762054    15.342456834    -0.690069049
 C       14.854023534    18.734855255    -1.062419789
 C       15.659621924    18.676594632    -2.136417902
 C       16.472660286    19.784722517    -2.626591248
 C       16.488984515    21.038390048    -2.009875368
 C       17.281663326    22.070230607    -2.512470907
 C       18.081147696    21.867744763    -3.641685247
 C       18.067229586    20.610814236    -4.261536382
 C       17.271468022    19.584428991    -3.760586503
Si       19.133307630    23.218270257    -4.318357452
 C       19.234355224    24.664379723    -3.144258579
 C       20.870308804    22.510544518    -4.642832329
 C       18.407118921    23.825184422    -5.969972247
 C       12.358517289    13.274689759     2.457588975
 C       10.904500616    12.971793920    -0.254240438
 C       -5.350612484    12.589058087    -1.204965821
 C       -4.862489841    12.775127141     1.841731001
 C       -0.657736991    -0.899777372    -1.543185224
 C       -0.607782058    -0.927685390     1.547156961
 H        1.211117903     2.712391599     0.434678226
 H        0.271135554     4.951356442     0.425527727
 H       -3.634011628     3.354660888    -0.425044841
 H       -2.734652808     1.095422791    -0.434598459
 H       -3.424065117     5.666756923    -0.209965144
 H       -0.599824019     6.780170952     0.397033059
 H       -4.295579142     7.489444496    -0.235023868
 H       -5.240811439     9.726354698    -0.242267296
 H       -1.290254734    11.358566660     0.583181288
 H       -0.391732264     9.095016979     0.605706789
 H       -2.108833829    13.385062213    -1.071033088
 H       -3.016877188    15.033199480     1.420613555
 H       -1.841638634    16.971947537     1.882561627
 H       -0.074163770    18.598779112     1.413592102
 H        1.217049710    16.189624968    -1.939999617
 H       -0.622199669    14.644050927    -1.525993190
 H        3.513058424    18.891503472    -1.634704061
 H        2.294573172    17.951303657    -2.512960121
 H        3.320299597    17.151571876    -1.272694132
 H        2.696293721    17.730201422     4.876506369
 H        4.181731097    16.965627857     5.467339399
 H        3.319528383    16.272914502     4.050979441
 H        5.902030481    19.149376182     1.718138790
 H        7.937637102    18.194710566     0.755698630
 H        7.749611512    14.931062568     3.554601162
 H        5.690326422    15.837911923     4.494716804
 H        9.598273826    16.596095925     0.657050352
 H        9.441764975    14.238044689     2.699094508
 H       11.847049641    17.011997269     1.954752535
 H       13.238332933    18.796265071     1.056232247
 H       14.638230449    16.190380782    -2.070138006
 H       13.260495808    14.384160334    -1.215504307
 H       14.767805588    19.657484861    -0.480834319
 H       15.746206816    17.753930804    -2.717642936
 H       15.878502892    21.220913518    -1.127410516
 H       17.251790699    23.029083592    -1.987547410
 H       18.672527447    20.394196646    -5.146378068
 H       17.273255898    18.615547195    -4.256258298
 H        3.046416308    19.908756907     0.274799904
 H        1.522333694    19.695495681     1.156882247
 H        2.327503687    17.390881110     1.952044108
 H        3.843658811    17.624602106     1.088914315
 H        4.222616710    19.802508927     2.476426341
 H        2.779971209    19.383699241     3.417922528
 H        2.263082180    -1.029885432    -0.038990748
 H        2.274624538     0.480327246     0.906044466
 H        2.261824784     0.541755421    -0.877931364
 H       19.898226479    25.453298348    -3.540808394
 H       19.639265551    24.352165839    -2.164484164
 H       18.243698947    25.119906148    -2.970503643
 H       20.728724128    21.674132058    -5.387678744
 C       21.844041736    23.530647044    -5.259094822
 C       21.507542770    21.909587370    -3.376859386
 H       19.056193084    24.692151292    -6.286937941
 C       18.444688082    22.769270327    -7.089078327
 C       16.962490969    24.338072454    -5.825041335
 H       11.678234847    12.458670152     2.836965356
 C       13.640293324    12.616695761     1.918039261
 C       12.723933313    14.183276376     3.645193296
 H       11.876676307    12.557589194    -0.649455468
 C       10.057494651    11.790855417     0.252692083
 C       10.164223405    13.652249548    -1.419685297
 H       -6.162936156    11.852450303    -0.939118826
 C       -5.983284978    13.989758516    -1.278137214
 C       -4.803122163    12.211840399    -2.593018600
 H       -5.176653524    13.858813304     1.820495546
 C       -6.119246444    11.920658518     2.085723320
 C       -3.894579365    12.578048900     3.022951063
 H       -1.782629413    -0.893946238    -1.448054448
 C       -0.292765005    -0.172154733    -2.849799086
 C       -0.200749463    -2.366105671    -1.640958175
 H       -0.102419460    -1.936131199     1.514584659
 C       -0.193092732    -0.227940206     2.854587645
 C       -2.129164821    -1.159010737     1.573483270
 H       21.489277738    23.951697051    -6.208682414
 H       22.806108209    23.045214321    -5.478938701
 H       22.070299197    24.367904353    -4.585579232
 H       20.890779059    21.128330040    -2.909843119
 H       21.726611136    22.661947588    -2.607632292
 H       22.466766103    21.434226485    -3.626789657
 H       19.455094303    22.402365616    -7.309379584
 H       18.065509367    23.202454215    -8.026237035
 H       17.807883011    21.899254566    -6.875867942
 H       16.860667046    25.158059332    -5.102548822
 H       16.256067055    23.547788456    -5.532776958
 H       16.603714650    24.730448525    -6.787390182
 H       13.452129640    11.878265600     1.128390702
 H       14.154935416    12.076862703     2.726171991
 H       14.364970086    13.346164046     1.528518701
 H       11.851227405    14.648917539     4.123291709
 H       13.419741255    14.988547725     3.368415970
 H       13.228109859    13.597716214     4.426958260
 H       10.552119053    11.204191019     1.037204189
 H        9.857080085    11.091578042    -0.571876768
 H        9.075381703    12.102723476     0.635067996
 H       10.731195155    14.474905227    -1.877108078
 H        9.182601637    14.051866717    -1.126156476
 H        9.974015653    12.925810635    -2.222070614
 H       -6.475347668    14.294776534    -0.345691048
 H       -6.759066726    14.012397371    -2.056730944
 H       -5.258830905    14.773267760    -1.543621151
 H       -4.370263286    11.202212001    -2.631098685
 H       -4.040982462    12.914048843    -2.958010486
 H       -5.614579871    12.225486371    -3.334458398
 H       -6.907248191    12.081602368     1.339108062
 H       -6.563621927    12.175615989     3.058847835
 H       -5.904430442    10.843269950     2.122059743
 H       -2.981637745    13.184557307     2.949756486
 H       -3.583075048    11.530666891     3.146893628
 H       -4.383434301    12.866932949     3.963835544
 H       -0.639187462     0.870983871    -2.876655475
 H       -0.765585985    -0.674287640    -3.705826226
 H        0.786486477    -0.167528102    -3.051891224
 H       -0.491555348    -2.971096205    -0.772473646
 H        0.884610068    -2.468793261    -1.771926292
 H       -0.661957772    -2.845047228    -2.516964287
 H        0.892059998    -0.097401340     2.955009639
 H       -0.511562481    -0.826993120     3.719757558
 H       -0.659587207     0.760290257     2.976447589
 H       -2.500402179    -1.720451406     0.706905514
 H       -2.701579659    -0.223163222     1.640698549
 H       -2.403391065    -1.748836166     2.460380171

