187   

Si        0.000000000     0.000000000     0.000000000
 C        1.864940882     0.000000000     0.000000000
 C       -0.676267035     1.712324764     0.000000000
 C        0.101270399     2.790770673    -0.434331345
 C       -0.417046867     4.085600746    -0.431828146
 C       -1.721811954     4.331026841     0.002835539
 C       -2.501731913     3.249001227     0.432547454
 C       -1.988621125     1.955095472     0.427171693
 C       -2.307503434     5.666409669     0.023821192
 C       -1.678294807     6.789314007    -0.362199814
 C       -2.275815976     8.120189994    -0.336316510
 C       -1.510548940     9.211543151    -0.766816569
 C       -2.039776496    10.500178303    -0.759506669
 C       -3.358835458    10.720297496    -0.348903124
 C       -4.129893702     9.630412339     0.072943425
 C       -3.590337594     8.345772860     0.083240553
Si       -4.103659030    12.402434565    -0.321373304
 C       -5.870892842    12.231032586    -0.751182803
 C       -6.889127880    12.757179094    -0.058914066
 C       -8.298561075    12.608332836    -0.419972911
 C       -9.264546729    13.212898377     0.395330819
 C      -10.615048829    13.108593246     0.107001759
 C      -11.054874201    12.321234760    -0.979616122
 C      -10.083610288    11.702036347    -1.791721574
 C       -8.731743555    11.867070049    -1.523375642
 N      -12.425630739    12.220942659    -1.264920339
 C      -13.372432327    12.389785016    -0.146738408
 C      -12.829398437    11.196410145    -2.240538276
 C      -13.113595889    11.497586916     1.081510262
 C      -13.754031579    10.100958550     0.967063790
 N      -12.888362982     8.992062674     1.428476186
 C      -11.806696097     8.736299173     0.528828753
 C      -12.145086820     8.107859162    -0.682927932
 C      -11.158298950     7.822978196    -1.612317984
 C       -9.813217102     8.124912348    -1.349345665
 C       -9.482339976     8.731114649    -0.135373657
 C      -10.466561786     9.033097899     0.802009608
 C      -12.504527338     9.116855069     2.845295591
 C       -8.822165195     7.796873554    -2.375674645
 C       -7.506355579     8.023909500    -2.269860049
Si       -6.326148119     7.584432075    -3.600295818
 C       -7.137826174     7.681225561    -5.250089114
 C       -8.109710720     8.662795742    -5.481591046
 C       -8.739559816     8.758331423    -6.720656285
 C       -8.405580861     7.885299932    -7.760109975
 C       -7.427113738     6.909938660    -7.529386940
 C       -6.797991213     6.809643812    -6.290331300
 C       -9.038520071     7.948337267    -9.073261821
 C       -9.987677950     8.833046122    -9.422988111
 C      -10.621162288     8.896856094   -10.735798666
 C      -10.291519706     8.023208946   -11.775158483
 C      -10.922502105     8.119674025   -13.015340487
 C      -11.905075517     9.088876588   -13.240110779
 C      -12.238629011     9.965642155   -12.198739661
 C      -11.602100628     9.871370261   -10.964341690
Si      -12.747172899     9.229325447   -14.870838855
 C      -12.418375994     7.739117735   -15.943679905
 C      -14.616349641     9.417799978   -14.562961105
 C      -12.123096881    10.783466559   -15.775585314
 C       -4.879123512     8.814132087    -3.551088487
 C       -5.680931921     5.823742925    -3.294303209
 C       -3.892526967    13.110649213     1.433392251
 C       -3.238463231    13.579957175    -1.535936317
 C       -0.627154503    -0.908696679    -1.550327848
 C       -0.650971540    -0.916516463     1.536479316
 H        1.129729824     2.660722123    -0.782249446
 H        0.209078926     4.908068758    -0.772637889
 H       -3.521460404     3.418355187     0.773941146
 H       -2.644875791     1.150389884     0.770527790
 H       -3.333696780     5.706410917     0.404090333
 H       -0.650231476     6.753690210    -0.732550079
 H       -0.487898608     9.055680833    -1.104125116
 H       -1.392568691    11.315568570    -1.092621332
 H       -5.169232548     9.746594751     0.400469970
 H       -4.207508206     7.514634995     0.421339370
 H       -6.046885459    11.640919274    -1.666632764
 H       -6.741299996    13.355081623     0.850500661
 H       -8.952077934    13.795596069     1.262445041
 H      -11.331026479    13.637610386     0.727947651
 H      -10.377338799    11.082807355    -2.634429079
 H       -8.001488285    11.384982832    -2.177408118
 H      -13.924581303    11.187463878    -2.357110445
 H      -12.498165566    10.178567311    -1.966978862
 H      -12.403671177    11.453141401    -3.228586901
 H      -13.423037732     9.111447749     3.457445861
 H      -11.929514707    10.022592118     3.090729006
 H      -11.910690259     8.232565141     3.137185953
 H      -13.181945765     7.838285650    -0.874055097
 H      -11.430937292     7.342730625    -2.552609694
 H       -8.444026360     8.984675042     0.085135303
 H      -10.185651324     9.518133561     1.732504207
 H       -9.273272115     7.339467285    -3.269122722
 H       -7.066966236     8.473040221    -1.367162940
 H       -8.408139863     9.378556263    -4.707215854
 H       -9.495742936     9.525930014    -6.874427395
 H       -7.151572188     6.221384411    -8.325777704
 H       -6.040734072     6.030023738    -6.170185308
 H       -8.681750445     7.202366963    -9.789512574
 H      -10.343318588     9.579523056    -8.706837701
 H       -9.533586426     7.256613259   -11.624466498
 H      -10.620756137     7.409397164   -13.790070517
 H      -12.999252808    10.742601845   -12.316441417
 H      -11.872819867    10.562834875   -10.168730355
 H      -13.327434549    13.464049397     0.157471471
 H      -14.406379157    12.235052647    -0.526274132
 H      -12.018442464    11.391260883     1.235604800
 H      -13.483543421    12.006882048     1.989361893
 H      -14.692505016    10.055524508     1.562761789
 H      -14.047049888     9.889399525    -0.085122641
 H        2.262851986    -1.028944876     0.058349632
 H        2.259626317     0.558542179     0.868412812
 H        2.276247448     0.463932409    -0.913399310
 H      -12.963277873     7.810641834   -16.901923689
 H      -12.747872267     6.810329065   -15.443520074
 H      -11.344920122     7.632861693   -16.179064147
 H      -14.735780219    10.359326421   -13.951712236
 C      -15.437423613     9.586858850   -15.853607572
 C      -15.199378622     8.249931076   -13.746835218
 H      -12.632202316    10.774438946   -16.782506020
 C      -12.490926869    12.099767868   -15.067714610
 C      -10.601469591    10.758384216   -16.009611639
 H       -4.601227489     8.934197090    -2.460846270
 C       -3.627242904     8.328850498    -4.301223016
 C       -5.287134614    10.191850859    -4.101619055
 H       -4.944987954     5.615023383    -4.124367303
 C       -4.939214847     5.676799394    -1.956295057
 C       -6.796457310     4.765491077    -3.365429419
 H       -4.455505217    14.088290268     1.444138798
 C       -4.495971935    12.197274888     2.516238784
 C       -2.425342117    13.401384647     1.795943802
 H       -2.168108700    13.651110638    -1.184161501
 C       -3.226315419    13.065880533    -2.985571244
 C       -3.839793790    14.997212599    -1.518103957
 H       -0.154059599    -1.932414607    -1.519593644
 C       -2.155649594    -1.089013611    -1.574320075
 C       -0.190865366    -0.219983307    -2.856449037
 H       -1.775728767    -0.924097446     1.440248006
 C       -0.177855414    -2.378493761     1.624558458
 C       -0.295050738    -0.194472239     2.848665361
 H      -15.124221595    10.447362729   -16.458866966
 H      -16.495661952     9.754766689   -15.605713031
 H      -15.411062723     8.697769610   -16.497447077
 H      -14.696192086     8.102336812   -12.780457047
 H      -15.169230733     7.293079400   -14.284619245
 H      -16.256907291     8.441881266   -13.516057627
 H      -13.571242980    12.234649275   -14.930812047
 H      -12.149183808    12.956118895   -15.667364019
 H      -12.009815970    12.204130919   -14.084909650
 H      -10.262042353     9.886027165   -16.582678381
 H      -10.025053069    10.786293729   -15.073563694
 H      -10.294360483    11.642722159   -16.586227000
 H       -3.221153589     7.388133994    -3.906142341
 H       -2.821060617     9.070484995    -4.199687366
 H       -3.792703452     8.198614717    -5.378659825
 H       -6.134913010    10.643261891    -3.568983930
 H       -5.540923061    10.168387296    -5.171138693
 H       -4.447295142    10.894926196    -4.004447366
 H       -4.096042782     6.375987296    -1.850972424
 H       -4.506322818     4.668569376    -1.873753163
 H       -5.597961811     5.804865649    -1.087144173
 H       -7.336017653     4.761431208    -4.321982313
 H       -7.543274939     4.877676331    -2.566467113
 H       -6.368623542     3.759601417    -3.248810147
 H       -5.558312693    11.967558043     2.356357654
 H       -4.429491158    12.683752172     3.499459310
 H       -3.962265417    11.240495991     2.610552529
 H       -1.949190625    14.134411744     1.132331419
 H       -1.798674887    12.498375194     1.803315277
 H       -2.364913629    13.822777015     2.810003328
 H       -2.778882553    12.067685385    -3.090612133
 H       -2.628723267    13.737140614    -3.618962204
 H       -4.230471425    13.036588184    -3.432669991
 H       -3.796344572    15.477779077    -0.532339259
 H       -4.886432385    15.022103063    -1.854744949
 H       -3.281579725    15.651984564    -2.202480307
 H       -2.539760380    -1.664128874    -0.722283156
 H       -2.454391060    -1.642619569    -2.476438360
 H       -2.698465190    -0.133647705    -1.608504661
 H        0.897836123    -0.123895415    -2.956689648
 H       -0.626882849     0.782182686    -2.976864250
 H       -0.527869993    -0.807469712    -3.722600238
 H       -0.457370254    -2.979650035     0.749731495
 H       -0.638313659    -2.869866161     2.494112854
 H        0.907909625    -2.470108422     1.760448860
 H       -0.649634267     0.845622525     2.882278656
 H        0.783918430    -0.182101754     3.052638934
 H       -0.764771438    -0.706772503     3.700421399

