187   

Si        0.000000000     0.000000000     0.000000000
 C        1.865136785     0.000000000     0.000000000
 C       -0.681332405     1.711050055     0.000000000
 C        0.161672311     2.826103596     0.036250053
 C       -0.367378468     4.116838023     0.035825136
 C       -1.749041580     4.320477514     0.018192730
 C       -2.593685680     3.201971904    -0.011748553
 C       -2.068225062     1.913407918    -0.023713507
 C       -2.348342628     5.650150138     0.017020416
 C       -1.660929341     6.805106244     0.032346677
 C       -2.277620261     8.127444848     0.030900807
 C       -3.663237476     8.306622949     0.013087290
 C       -4.217250273     9.586162553     0.012266221
 C       -3.396930915    10.718886392    -0.012470086
 C       -2.006909669    10.541502414     0.002711730
 C       -1.456193421     9.262820255     0.041632714
Si       -4.103939236    12.418780012    -0.014092247
 C       -3.628761841    13.331551951    -1.529430670
 C       -3.392102863    12.766586100    -2.722245855
 C       -3.012602610    13.508862168    -3.926759113
 C       -2.788979766    12.811237225    -5.124245887
 C       -2.428583927    13.474016623    -6.286226068
 C       -2.365408286    14.883828034    -6.318224670
 C       -2.604666648    15.586397946    -5.120294675
 C       -2.893644172    14.900761301    -3.946848201
 N       -1.999770093    15.548426075    -7.498145297
 C       -2.428441099    14.997176523    -8.799620142
 C       -2.005802727    17.018871288    -7.479892961
 C       -1.185777635    14.884549173    -9.702923716
 C       -1.482432740    14.295196033   -11.093580817
 N       -2.073795545    12.933911065   -11.133985286
 C       -1.680260127    12.096176785   -10.060479240
 C       -0.299136372    11.913109259    -9.840885419
 C        0.137289192    11.104385251    -8.805208708
 C       -0.775859170    10.393151721    -8.012964924
 C       -2.141110162    10.544539616    -8.262834013
 C       -2.596632121    11.381799577    -9.275178760
 C       -3.514081340    12.953917670   -11.444907840
 C       -0.267970563     9.550710236    -6.929238240
 C       -1.063906400     8.837318270    -6.123619850
Si       -0.520615440     7.765115028    -4.753752978
 C       -1.213879708     6.068323420    -4.729494137
 C       -1.287932494     5.284104672    -5.884957456
 C       -1.821644971     3.995642048    -5.832057567
 C       -2.265749423     3.457299966    -4.621380588
 C       -2.179053652     4.240759617    -3.464132057
 C       -1.661290551     5.530309041    -3.515811059
 C       -2.832341230     2.119914423    -4.498664242
 C       -2.985892632     1.245033408    -5.506554810
 C       -3.557847888    -0.087925597    -5.347961341
 C       -3.999228973    -0.568701908    -4.112424830
 C       -4.541186534    -1.847850819    -3.994861369
 C       -4.632351555    -2.684782538    -5.110835193
 C       -4.183289894    -2.208874768    -6.350345713
 C       -3.656167868    -0.925524815    -6.466531661
Si       -5.345301260    -4.375193819    -4.970208624
 C       -5.527568449    -4.891603231    -3.186235802
 C       -7.057069190    -4.419629349    -5.799663279
 C       -4.190013926    -5.578719470    -5.886757984
 C        1.369496031     7.632470421    -4.626723539
 C       -1.167925079     8.761457221    -3.259286369
 C       -6.008505477    12.347350594     0.049630808
 C       -3.501035437    13.384103076     1.510012420
 C       -0.580480289    -0.930430849    -1.558952036
 C       -0.675022107    -0.886745258     1.541366802
 H        1.250711497     2.728791339     0.054886000
 H        0.311123235     4.967840681     0.051595176
 H       -3.673316314     3.339653839    -0.023699058
 H       -2.774365093     1.078555041    -0.050664807
 H       -3.442828549     5.656196071     0.003157272
 H       -0.567501706     6.806209678     0.048736068
 H       -4.326615430     7.443564901     0.007723134
 H       -5.308537262     9.657128297     0.024348550
 H       -1.315665396    11.390750820    -0.015375282
 H       -0.373985769     9.147673427     0.068051909
 H       -3.566721840    14.421909496    -1.394750323
 H       -3.447882133    11.680102860    -2.885289898
 H       -2.866094137    11.721791124    -5.137310155
 H       -2.187400555    12.896721213    -7.178382198
 H       -2.561689879    16.669173909    -5.092561823
 H       -3.049978954    15.471746488    -3.030797032
 H       -1.634637995    17.408107968    -8.442941008
 H       -1.308409474    17.379242317    -6.701365684
 H       -3.003930474    17.448111339    -7.292655383
 H       -3.667383368    13.499101746   -12.392409086
 H       -4.140659756    13.417779376   -10.667941074
 H       -3.863959517    11.920100324   -11.617956257
 H        0.419306242    12.416776161   -10.482532022
 H        1.206611520    11.003410009    -8.619459008
 H       -2.871526092    10.001450758    -7.660443468
 H       -3.666069209    11.480582483    -9.432880070
 H        0.824804287     9.555436723    -6.844121182
 H       -2.161391605     8.859814981    -6.243453836
 H       -0.948206189     5.653678346    -6.856450377
 H       -1.883782328     3.407629513    -6.745076745
 H       -2.512548407     3.837467219    -2.507328927
 H       -1.624366297     6.090004511    -2.573826167
 H       -3.144814930     1.854457170    -3.482232217
 H       -2.678476020     1.500746740    -6.523248223
 H       -3.931781625     0.062095842    -3.226524184
 H       -4.880588780    -2.162425904    -3.004156441
 H       -4.229576012    -2.819396275    -7.256364467
 H       -3.316276011    -0.572075119    -7.438114729
 H       -2.897107439    13.995573571    -8.671522848
 H       -3.200813419    15.639966957    -9.273721121
 H       -0.717794875    15.879726282    -9.826909476
 H       -0.419168358    14.278630650    -9.174260402
 H       -2.130405761    14.993921656   -11.664652181
 H       -0.524023334    14.229154209   -11.664630479
 H        2.262724811    -1.030485253     0.012449172
 H        2.266808933     0.518959535     0.888331618
 H        2.269593639     0.501414100    -0.897594309
 H       -5.915497837    -5.922981917    -3.109273587
 H       -6.224294679    -4.233167897    -2.638693323
 H       -4.554289187    -4.863880332    -2.663703319
 H       -7.453034488    -5.461711149    -5.624950768
 C       -8.044268280    -3.421356255    -5.167247858
 C       -7.014853483    -4.175361293    -7.318696500
 H       -4.172806100    -5.232333037    -6.961072670
 C       -2.746566009    -5.529394951    -5.353204166
 C       -4.682342354    -7.036552136    -5.869710313
 H        1.762706034     8.689671289    -4.650287590
 C        1.830556827     6.980591082    -3.309786661
 C        1.988482701     6.864034422    -5.808001978
 H       -0.874549656     8.192957824    -2.331338400
 C       -0.549401914    10.167645099    -3.179858542
 C       -2.701872297     8.885820135    -3.286407071
 H       -6.265229599    11.627720621     0.879337556
 C       -6.662809404    13.700953695     0.381053151
 C       -6.620645331    11.818169285    -1.260621727
 H       -4.049943955    14.370445197     1.477176220
 C       -3.853405315    12.684707505     2.834872171
 C       -1.992642566    13.688617950     1.493269382
 H        0.106449075    -1.821824923    -1.647595183
 C       -2.023010337    -1.459361434    -1.480885966
 C       -0.428388266    -0.083936355    -2.835021086
 H       -1.796934323    -0.907676923     1.416735962
 C       -0.185346284    -2.339644372     1.676190705
 C       -0.361554066    -0.130282781     2.845093240
 H       -8.198375685    -3.581278410    -4.092445051
 H       -9.033258609    -3.520295746    -5.637277769
 H       -7.740577649    -2.373847130    -5.307621092
 H       -6.391521306    -4.898301226    -7.859839300
 H       -6.665380523    -3.166146658    -7.578706593
 H       -8.026165619    -4.266409288    -7.741363846
 H       -2.306102621    -4.522435803    -5.386559817
 H       -2.096351738    -6.169076706    -5.966818470
 H       -2.657080121    -5.896608876    -4.322344905
 H       -5.684894079    -7.162098023    -6.298677894
 H       -4.692546813    -7.473366296    -4.862367133
 H       -4.010399391    -7.666621151    -6.470557955
 H        1.512762020     7.535357366    -2.417505369
 H        2.928184171     6.940956367    -3.273643740
 H        1.482865102     5.942664600    -3.201510217
 H        1.740954817     7.293020023    -6.788246112
 H        1.694677492     5.804461706    -5.826571005
 H        3.084828210     6.876580242    -5.733786773
 H        0.537681164    10.157586741    -3.037441709
 H       -0.969591270    10.714778012    -2.321999681
 H       -0.763635391    10.787795446    -4.063230986
 H       -3.220639014     7.918840701    -3.334572175
 H       -3.071522413     9.506882260    -4.111977895
 H       -3.050317915     9.366350964    -2.357814478
 H       -6.365351466    14.100928367     1.358729194
 H       -7.756304296    13.589891738     0.417755021
 H       -6.459062742    14.471874296    -0.374673324
 H       -6.235443509    10.836983902    -1.567990657
 H       -6.468080765    12.506109885    -2.105955775
 H       -7.707551161    11.701555788    -1.149374780
 H       -4.930529616    12.520617651     2.968803451
 H       -3.528184181    13.301248920     3.685158304
 H       -3.353370023    11.712594496     2.952310118
 H       -1.650267489    14.162996189     0.563478757
 H       -1.376715940    12.794452670     1.660947180
 H       -1.742461989    14.386655153     2.305068438
 H       -2.181654035    -2.171193776    -0.661618719
 H       -2.270918901    -1.999851120    -2.409349189
 H       -2.770642960    -0.661791835    -1.385680094
 H        0.601626996     0.244209569    -3.023899333
 H       -1.063146583     0.814536593    -2.837551360
 H       -0.731333307    -0.669061529    -3.716541648
 H       -0.417495081    -2.961144231     0.801472803
 H       -0.673469683    -2.822285658     2.535141203
 H        0.895406408    -2.410468262     1.857767362
 H       -0.737944633     0.902452477     2.848399420
 H        0.711986598    -0.092288182     3.072437149
 H       -0.840517898    -0.633601544     3.697040319

