187   

Si        0.000000000     0.000000000     0.000000000
 C        1.865015900     0.000000000     0.000000000
 C       -0.678655123     1.711145108     0.000000000
 C        0.068762281     2.777908751     0.510197685
 C       -0.449532957     4.072733411     0.508124453
 C       -1.726793388     4.330161903     0.003181047
 C       -2.476880710     3.259411654    -0.501168770
 C       -1.962386376     1.965817896    -0.500140192
 C       -2.311701180     5.666475106    -0.020444689
 C       -1.706041060     6.778599413     0.429287084
 C       -2.298752632     8.111882991     0.401792043
 C       -1.559597080     9.190898660     0.903242060
 C       -2.086237700    10.480630018     0.896715180
 C       -3.360560755    10.723848526     0.371927640
 C       -4.100005768     9.647219997    -0.132748325
 C       -3.575614074     8.356234713    -0.112540239
Si       -4.095133511    12.410550242     0.342968456
 C       -5.093917865    12.677979201    -1.164629449
 C       -4.844872010    12.085311791    -2.340383712
 C       -5.637070572    12.291741477    -3.552925212
 C       -5.272088150    11.610619651    -4.723048108
 C       -5.987201753    11.769509677    -5.898590460
 C       -7.141218420    12.582480634    -5.929772925
 C       -7.510368514    13.263932922    -4.753528019
 C       -6.751951761    13.133039901    -3.597505855
 N       -7.861974520    12.739105357    -7.126388034
 C       -7.851508734    11.612545855    -8.075935796
 C       -9.180045931    13.391093152    -7.029949951
 C       -8.504608256    10.338904960    -7.510494761
 C       -8.818777667     9.294811652    -8.594515359
 N       -9.724512858     9.740743960    -9.678448755
 C      -10.752810441    10.626230562    -9.280873897
 C      -11.596831940    10.226057143    -8.223396843
 C      -12.618933013    11.055921755    -7.795593630
 C      -12.855647621    12.291686055    -8.418377035
 C      -12.033247229    12.672403482    -9.480273572
 C      -10.999272053    11.852078868    -9.918919337
 C       -9.020061451    10.069122497   -10.928400725
 C      -13.950179003    13.130239450    -7.925589604
 C      -14.269768805    14.325593713    -8.439188229
Si      -15.635668916    15.376781692    -7.827495733
 C      -17.012811036    14.384561373    -7.120702590
 C      -17.286468996    13.109754425    -7.629535692
 C      -18.327067357    12.345719248    -7.104078550
 C      -19.125823561    12.842044284    -6.069847849
 C      -18.856235360    14.122335542    -5.568881393
 C      -17.814548839    14.886869674    -6.088763120
 C      -20.225181841    12.077984398    -5.489596401
 C      -20.586573546    10.843275933    -5.877726966
 C      -21.685672350    10.078220287    -5.298304681
 C      -22.483052705    10.570090298    -4.261769804
 C      -23.524017970     9.803943349    -3.737453088
 C      -23.785391421     8.523591321    -4.234994850
 C      -22.986292951     8.027378393    -5.274026889
 C      -21.952024172     8.796795510    -5.799436509
Si      -25.155190207     7.499066128    -3.554510140
 C      -25.829709613     8.218156278    -1.971027449
 C      -26.566502702     7.398866740    -4.827923118
 C      -24.489336217     5.742194723    -3.248649931
 C      -14.937914858    16.561218421    -6.511656030
 C      -16.303207712    16.401166246    -9.284103896
 C       -5.226545993    12.613134440     1.858793940
 C       -2.729014532    13.732383751     0.420810531
 C       -0.645259886    -0.923255544    -1.535365852
 C       -0.627996682    -0.908816510     1.550014081
 H        1.073927901     2.638384690     0.917644207
 H        0.153780962     4.886066110     0.907219072
 H       -3.474738908     3.437576898    -0.897568130
 H       -2.595943237     1.171394620    -0.904172467
 H       -3.319311184     5.715762286    -0.444267636
 H       -0.699276426     6.732523955     0.853972502
 H       -0.563092655     9.022590252     1.306614714
 H       -1.466363832    11.281200792     1.309106364
 H       -5.101956256     9.778998313    -0.555970878
 H       -4.171995369     7.535689380    -0.507081426
 H       -5.924598975    13.389595239    -1.047908954
 H       -4.015474970    11.377119183    -2.482725852
 H       -4.401062233    10.953764915    -4.714454674
 H       -5.653222258    11.256979069    -6.795552329
 H       -8.384747064    13.906614854    -4.736083441
 H       -7.049561079    13.686469221    -2.705699975
 H       -9.682389834    13.389067530    -8.014043934
 H       -9.039395318    14.447926355    -6.740451978
 H       -9.859418459    12.906098924    -6.309571862
 H       -8.409486788     9.199906337   -11.231543869
 H       -8.364491861    10.951416441   -10.866209075
 H       -9.759102256    10.230595413   -11.733862080
 H      -11.442899865     9.258541083    -7.750941879
 H      -13.256932518    10.737019919    -6.969901853
 H      -12.199873780    13.625609954    -9.983896891
 H      -10.380894956    12.182362395   -10.747532055
 H      -14.497988756    12.677734935    -7.086630218
 H      -13.698821419    14.759853095    -9.274085955
 H      -16.699185768    12.671369342    -8.443778607
 H      -18.515397089    11.354246340    -7.512144842
 H      -19.467208787    14.527909299    -4.764757707
 H      -17.653100998    15.878806487    -5.658207644
 H      -20.763179999    12.588399433    -4.685486292
 H      -20.048937891    10.333053004    -6.682521543
 H      -22.297762746    11.562093547    -3.853800582
 H      -24.114156597    10.243116424    -2.928332864
 H      -23.143282326     7.033157166    -5.701933937
 H      -21.343536125     8.394827597    -6.607391268
 H       -8.378204382    11.946056725    -8.999600451
 H       -6.801273032    11.412296342    -8.384203263
 H       -7.845557646     9.887472823    -6.742952976
 H       -9.432734446    10.609726800    -6.966812818
 H       -7.873350654     8.917014896    -9.040784629
 H       -9.309022976     8.411409604    -8.117538361
 H        2.262717739    -1.029359661    -0.049969023
 H        2.277026151     0.472011220     0.908920325
 H        2.259123366     0.551672456    -0.873069196
 H      -26.620505670     7.574029734    -1.546587690
 H      -26.266696929     9.219571731    -2.129885716
 H      -25.035206361     8.313288065    -1.208682636
 H      -27.389500514     6.814118136    -4.323780419
 C      -27.124405400     8.784891548    -5.199970195
 C      -26.181771790     6.659570875    -6.121840814
 H      -24.143598651     5.363503770    -4.254422058
 C      -23.277843663     5.728150640    -2.298955200
 C      -25.554078563     4.765747795    -2.718265029
 H      -15.790876438    17.236818097    -6.213690244
 C      -14.454757310    15.815270361    -5.254922241
 C      -13.793379823    17.445419150    -7.038027026
 H      -15.430424887    17.003334496    -9.669271352
 C      -16.815985609    15.513744237   -10.432443783
 C      -17.416314133    17.380630767    -8.873417650
 H       -5.640479354    13.661022605     1.800252366
 C       -6.411064563    11.630328640     1.839675933
 C       -4.477989456    12.467924747     3.195170130
 H       -2.160246193    13.539108153     1.375783032
 C       -1.742862962    13.622165875    -0.756108372
 C       -3.277380287    15.169408687     0.477660090
 H       -1.770375870    -0.930174187    -1.443629654
 C       -0.283286978    -0.208234538    -2.849761801
 C       -0.172681351    -2.385969693    -1.614995893
 H       -0.157992134    -1.933865507     1.517494130
 C       -0.188723621    -0.223367884     2.856758354
 C       -2.157077056    -1.084116374     1.573676097
 H      -27.501926038     9.349547889    -4.337792961
 H      -27.972716004     8.676516849    -5.890944247
 H      -26.387421894     9.417706469    -5.715226154
 H      -25.840669179     5.630555489    -5.951872809
 H      -25.404855379     7.182881862    -6.696856598
 H      -27.055469944     6.586321993    -6.785873848
 H      -22.448952727     6.362864713    -2.643801853
 H      -22.871932381     4.709486162    -2.220459301
 H      -23.529885374     6.039896372    -1.276699379
 H      -26.422399744     4.666519260    -3.382389031
 H      -25.925022101     5.036744354    -1.720899440
 H      -25.124505312     3.757871826    -2.622227759
 H      -15.237510027    15.206613054    -4.780916080
 H      -14.121398562    16.534268589    -4.493415863
 H      -13.597904286    15.154855370    -5.452595521
 H      -14.081271159    18.066974662    -7.895431388
 H      -12.904336726    16.866774525    -7.325644448
 H      -13.465416004    18.141679726    -6.252525637
 H      -16.058333371    14.819479154   -10.820565871
 H      -17.125911507    16.138234826   -11.282378038
 H      -17.697533794    14.919222030   -10.151681092
 H      -17.096795209    18.113616195    -8.121709531
 H      -18.312261785    16.873418023    -8.487219909
 H      -17.747319677    17.961566247    -9.746591396
 H       -7.028546373    11.708532350     0.934401896
 H       -7.080870837    11.830217226     2.687935703
 H       -6.096704481    10.581237957     1.937792851
 H       -3.671540475    13.200879818     3.325024801
 H       -4.046162401    11.466839023     3.337305024
 H       -5.171784919    12.623261345     4.034015587
 H       -1.263844076    12.636579121    -0.835520122
 H       -0.929537794    14.351619659    -0.637534734
 H       -2.212351709    13.838595204    -1.727051080
 H       -3.931425280    15.353012557     1.339449491
 H       -3.829951364    15.451535419    -0.429617222
 H       -2.447091302    15.884953597     0.565523184
 H       -0.633692415     0.833055959    -2.889119911
 H       -0.751895515    -0.722639334    -3.700719019
 H        0.796391779    -0.200520946    -3.050306242
 H       -0.460223604    -2.984059139    -0.740630986
 H        0.914100282    -2.479025001    -1.741346164
 H       -0.626037171    -2.879748985    -2.486805469
 H        0.900432592    -0.133199977     2.957416287
 H       -0.529258797    -0.809633245     3.722358818
 H       -0.619687060     0.781012779     2.977719822
 H       -2.542985696    -1.656603908     0.720742830
 H       -2.696489373    -0.126761473     1.608170468
 H       -2.458229130    -1.637509541     2.475049393

