187   

Si        0.000000000     0.000000000     0.000000000
 C        1.864886902     0.000000000     0.000000000
 C       -0.687065679     1.707396733     0.000000000
 C        0.093880153     2.810015725    -0.358387831
 C       -0.448036308     4.095970954    -0.351235231
 C       -1.782939834     4.303997692     0.002324783
 C       -2.566363110     3.196459417     0.356538813
 C       -2.027333760     1.913949246     0.356777984
 C       -2.399084899     5.625220521     0.026447323
 C       -1.783521792     6.780607488    -0.278621592
 C       -2.439169036     8.084685609    -0.241391816
 C       -1.713379768     9.233951381    -0.576909956
 C       -2.313808349    10.492934364    -0.550163440
 C       -3.655567840    10.629392163    -0.183685284
 C       -4.384537364     9.479202362     0.149931665
 C       -3.784039174     8.224434102     0.117062633
Si       -4.545099973    12.241335407    -0.115046462
 C       -5.613695390    12.241048407     1.374211836
 C       -5.281540559    11.552772624     2.475109415
 C       -6.069476782    11.494548501     3.705015504
 C       -5.578618083    10.724884324     4.769726620
 C       -6.273449189    10.625716636     5.962947119
 C       -7.547541520    11.219139298     6.098896711
 C       -8.049194293    11.975482053     5.022672049
 C       -7.303481640    12.129454794     3.859594528
 N       -8.249518323    11.114511093     7.316142276
 C       -7.952765250     9.935862002     8.156479348
 C       -9.684346297    11.445023904     7.276403876
 C       -8.046944504     8.578466265     7.437537049
 C       -9.426965815     7.904523548     7.541687548
 N       -9.493216951     6.790610628     8.508681781
 C       -8.549541479     5.755461006     8.354789430
 C       -7.977921047     5.488433338     7.092015178
 C       -7.049801832     4.470449902     6.940328329
 C       -6.702415340     3.637961036     8.013156666
 C       -7.296304917     3.880376183     9.254950380
 C       -8.206317380     4.914732104     9.430927587
 C       -9.748522410     7.246539090     9.886101864
 C       -5.715860766     2.577193384     7.798602564
 C       -5.313585751     1.728096493     8.753382285
Si       -4.089932192     0.385008657     8.555784952
 C       -4.006179948    -0.358716768     6.875910997
 C       -5.004892982    -0.151298349     5.920380131
 C       -4.908340720    -0.731612073     4.655164392
 C       -3.822526459    -1.545418159     4.324584366
 C       -2.825992479    -1.760450657     5.286666785
 C       -2.915171262    -1.175790430     6.545898645
 C       -3.673160100    -2.175586054     3.018301275
 C       -4.542303366    -2.061895545     2.000050431
 C       -4.371040980    -2.702766929     0.700403037
 C       -3.266618633    -3.504862275     0.399011798
 C       -3.137824903    -4.100689695    -0.854597678
 C       -4.107907665    -3.896341785    -1.842105071
 C       -5.214413843    -3.091221955    -1.543622564
 C       -5.345105926    -2.505662724    -0.286683986
Si       -3.926529339    -4.688924496    -3.494292398
 C       -2.124515326    -4.940642670    -3.907101747
 C       -4.817562696    -6.369227812    -3.473679530
 C       -4.746682521    -3.590527046    -4.815243742
 C       -2.369446229     1.078148863     8.989084842
 C       -4.542710553    -0.974015216     9.809782697
 C       -3.316180103    13.688277274    -0.022747628
 C       -5.621781659    12.448312299    -1.666665017
 C       -0.638770957    -0.905216263    -1.549744138
 C       -0.668564005    -0.928217498     1.521975389
 H        1.143254583     2.707216098    -0.646520233
 H        0.181119703     4.939540722    -0.627589394
 H       -3.608395244     3.338192669     0.636732902
 H       -2.685476462     1.087935502     0.646146917
 H       -3.453190196     5.624091716     0.324523626
 H       -0.732993632     6.796594431    -0.577272262
 H       -0.667036361     9.147675258    -0.862362412
 H       -1.699502692    11.354052539    -0.824205609
 H       -5.439414653     9.522982418     0.444926207
 H       -4.374945184     7.348272789     0.378589322
 H       -6.526717672    12.846984038     1.320125755
 H       -4.360322188    10.950562112     2.537259508
 H       -4.618466654    10.214988925     4.669304537
 H       -5.826946549    10.079138036     6.789146795
 H       -9.017076363    12.460969908     5.089688787
 H       -7.703124251    12.742026846     3.050674911
 H      -10.132524421    11.307709165     8.274074878
 H      -10.253064623    10.843051983     6.549570470
 H       -9.802855812    12.514922394     7.023879267
 H      -10.477950544     8.073024711     9.882303032
 H       -8.839787176     7.583889068    10.410294817
 H      -10.209553977     6.423345231    10.462017981
 H       -8.252069971     6.084264005     6.225819147
 H       -6.596787790     4.306352687     5.961222535
 H       -7.046945635     3.248299481    10.108742328
 H       -8.643883058     5.064335951    10.412581486
 H       -5.327988107     2.546726465     6.771412484
 H       -5.715333307     1.803563646     9.777499740
 H       -5.888901086     0.459839576     6.129137559
 H       -5.694660512    -0.547356057     3.925568922
 H       -1.973856182    -2.395503539     5.051098593
 H       -2.104620424    -1.377085211     7.252631970
 H       -2.766270210    -2.780088720     2.907636580
 H       -5.450136838    -1.461910661     2.103188453
 H       -2.492302707    -3.672772845     1.146499366
 H       -2.253042986    -4.719205486    -1.029471945
 H       -6.004148545    -2.898172615    -2.274660700
 H       -6.214114098    -1.886192426    -0.073630316
 H       -6.920806617    10.078407759     8.560063441
 H       -8.616772208     9.952707758     9.047568287
 H       -7.782521194     8.693296132     6.366051988
 H       -7.263051841     7.903796038     7.839556561
 H      -10.212749008     8.647550671     7.798099914
 H       -9.729934352     7.496014774     6.548016913
 H        2.263858585    -1.029490431    -0.014528245
 H        2.259666275     0.497439379     0.904370402
 H        2.273837210     0.527501350    -0.879166096
 H       -2.001566333    -5.330393769    -4.933239582
 H       -1.640018347    -5.655463059    -3.219790065
 H       -1.569862096    -3.985966318    -3.844843524
 H       -4.638430871    -6.826389885    -4.489407845
 C       -4.248853155    -7.328633213    -2.412163082
 C       -6.337781189    -6.246690332    -3.265524173
 H       -5.837205614    -3.524905087    -4.531013593
 C       -4.177836029    -2.160254635    -4.838378945
 C       -4.666734665    -4.182019181    -6.234156077
 H       -1.669790655     0.193582578     9.004543702
 C       -1.861991059     2.070066969     7.927536381
 C       -2.317514155     1.750357375    10.372083068
 H       -4.553311987    -0.470712569    10.819630874
 C       -5.944329799    -1.554680150     9.549399282
 C       -3.527494656    -2.128345112     9.865476426
 H       -2.666295006    13.602904999    -0.941312206
 C       -3.997638192    15.068247041    -0.049920255
 C       -2.407720417    13.607043927     1.217504185
 H       -6.142838332    13.442700908    -1.552212251
 C       -4.802034069    12.484286002    -2.968513852
 C       -6.700742119    11.356866001    -1.786745949
 H       -0.385403831    -1.994098790    -1.400235338
 C       -2.162063748    -0.788457029    -1.725017169
 C        0.039771594    -0.431956205    -2.848518213
 H       -1.771703862    -1.082983868     1.325840754
 C       -0.024372122    -2.312248579     1.722625464
 C       -0.532731425    -0.120149598     2.824378664
 H       -3.179227191    -7.537538790    -2.541259165
 H       -4.760033017    -8.300419173    -2.470793362
 H       -4.397385455    -6.965549851    -1.384996613
 H       -6.838576400    -5.661906101    -4.047593666
 H       -6.602456252    -5.805311764    -2.294110312
 H       -6.801584355    -7.243712952    -3.284929651
 H       -4.275354336    -1.638821982    -3.875097139
 H       -4.722471041    -1.549512292    -5.572872390
 H       -3.120176066    -2.122495764    -5.131801457
 H       -5.109630620    -5.182978640    -6.315247780
 H       -3.639168243    -4.238870766    -6.617244134
 H       -5.221557319    -3.544588592    -6.938093107
 H       -1.804707430     1.636875708     6.918611397
 H       -0.844563257     2.402851298     8.177008806
 H       -2.476316642     2.979628768     7.862431364
 H       -2.599329660     1.080149596    11.193859124
 H       -2.952793602     2.645194497    10.435515968
 H       -1.292916681     2.086372244    10.587784157
 H       -6.739536881    -0.796408091     9.551495692
 H       -6.205632454    -2.277786366    10.334866060
 H       -6.010684522    -2.099430237     8.596586943
 H       -2.512399994    -1.804491219    10.127559913
 H       -3.469421142    -2.692357179     8.923678213
 H       -3.826073684    -2.853793293    10.636326911
 H       -4.598690613    15.240016985    -0.951811423
 H       -3.237454843    15.862671578    -0.033030938
 H       -4.642826864    15.243571874     0.822233629
 H       -1.841554156    12.667935117     1.285718452
 H       -2.962360162    13.725219933     2.160047056
 H       -1.663191046    14.415007422     1.194214833
 H       -4.064883033    13.296885000    -2.997780142
 H       -5.468255533    12.643177800    -3.828713875
 H       -4.269170202    11.542700855    -3.164505860
 H       -7.364985188    11.301764950    -0.913767445
 H       -6.277522080    10.354721696    -1.947283119
 H       -7.346172611    11.558927987    -2.653238905
 H       -2.733230219    -1.227828930    -0.894157334
 H       -2.478264025    -1.335187301    -2.625445974
 H       -2.505430589     0.246231523    -1.858849794
 H        1.129803025    -0.553693527    -2.840270328
 H       -0.178565125     0.619049042    -3.084045133
 H       -0.330049274    -1.020974843    -3.700112997
 H       -0.144631669    -2.977086125     0.857624814
 H       -0.487889893    -2.823332874     2.578434963
 H        1.048349668    -2.253082695     1.950368302
 H       -0.994683871     0.876256013     2.769217953
 H        0.509007924     0.016331286     3.139891204
 H       -1.045747765    -0.640862587     3.647197909

