187   

Si        0.000000000     0.000000000     0.000000000
 C        1.865273861     0.000000000     0.000000000
 C       -0.664276753     1.717265181     0.000000000
 C        0.020659720     2.732835072    -0.677159403
 C       -0.471155533     4.037420911    -0.685219018
 C       -1.661589603     4.356361048    -0.025753726
 C       -2.350267665     3.337014959     0.644457386
 C       -1.861112541     2.033103678     0.654749690
 C       -2.213967419     5.706766852    -0.007341682
 C       -1.654558797     6.771020292    -0.607628792
 C       -2.207387855     8.121274375    -0.588901568
 C       -3.397656532     8.439053808     0.070739116
 C       -3.890427902     9.743709622     0.063253693
 C       -3.210867961    10.756103565    -0.621212373
 C       -2.018979190    10.439652029    -1.287139499
 C       -1.522518151     9.139266521    -1.265930484
Si       -3.833050616    12.487129912    -0.651357781
 C       -3.492793882    13.300009506    -2.253113519
 C       -3.420314798    12.650356212    -3.422928496
 C       -3.148360854    13.295121797    -4.708121692
 C       -3.097758068    12.503800189    -5.864991261
 C       -2.843983379    13.063981299    -7.106050416
 C       -2.581870117    14.445976517    -7.226916789
 C       -2.632247144    15.240750910    -6.066172468
 C       -2.933465583    14.669775858    -4.836085711
 N       -2.325980600    14.998625199    -8.495949021
 C       -1.570783703    14.160722115    -9.446006392
 C       -1.920458071    16.414316306    -8.533887227
 C       -0.161988338    13.796118933    -8.943537136
 C        0.774416455    13.315764811   -10.064563500
 N        1.018945576    14.277043174   -11.166582626
 C        1.032636751    15.638724641   -10.781284545
 C        1.929229897    16.025656106    -9.763033123
 C        1.983582194    17.345269388    -9.347815172
 C        1.174766107    18.324861336    -9.944756616
 C        0.308259547    17.941403780   -10.970201432
 C        0.240886473    16.619726007   -11.397866844
 C        0.273471287    13.952126622   -12.393924956
 C        1.269925087    19.706913073    -9.469135527
 C        0.545710340    20.716732092    -9.967711762
Si        0.611208565    22.461005945    -9.425637345
 C       -1.104730720    23.044646780    -9.112328433
 C       -2.096853421    22.121574755    -8.757331375
 C       -3.400607068    22.547173328    -8.516821105
 C       -3.741486725    23.902853356    -8.612265504
 C       -2.746723594    24.821504113    -8.959581382
 C       -1.441085901    24.398679221    -9.206357750
 C       -5.121464973    24.298338260    -8.350696350
 C       -5.582137116    25.559224797    -8.412265247
 C       -6.962794013    25.952347817    -8.150230294
 C       -7.955394749    25.032376165    -7.803231810
 C       -9.263524454    25.451771376    -7.561150578
 C       -9.608786463    26.802544073    -7.668044120
 C       -8.615044982    27.727272870    -8.017360284
 C       -7.309289595    27.306410771    -8.253026661
Si      -11.330413431    27.372829875    -7.351964645
 C      -12.521096577    25.940134519    -7.255783716
 C      -11.392136409    28.328858663    -5.707098124
 C      -11.832998669    28.552493876    -8.758869373
 C        1.633988710    22.658447554    -7.835553734
 C        1.413842719    23.496874259   -10.803693835
 C       -5.707611583    12.524660346    -0.328840727
 C       -2.958800870    13.474900968     0.719704223
 C       -0.632360939    -0.897425028    -1.555052149
 C       -0.644760567    -0.934890997     1.528069856
 H        0.956272145     2.544417393    -1.211267068
 H        0.083528292     4.809904921    -1.214701050
 H       -3.280038236     3.563138203     1.163135671
 H       -2.444458973     1.280546338     1.192292846
 H       -3.151246691     5.809859519     0.547366521
 H       -0.717241152     6.668162829    -1.162191581
 H       -3.950561282     7.666744867     0.601971170
 H       -4.821468119     9.932483027     0.604528486
 H       -1.446327412    11.192631848    -1.839501494
 H       -0.593412259     8.912852267    -1.785374030
 H       -3.365699012    14.391424925    -2.196629150
 H       -3.553043944    11.561857360    -3.505644069
 H       -3.272937207    11.429644192    -5.791188073
 H       -2.847437847    12.429712326    -7.987542653
 H       -2.443360924    16.308499911    -6.115086667
 H       -2.982517885    15.310873731    -3.954755485
 H       -1.719025185    16.724350761    -9.575130566
 H       -1.016159825    16.633258162    -7.942333918
 H       -2.754804711    17.038672372    -8.166658900
 H        0.524917179    12.920213335   -12.697876978
 H        0.610138470    14.612238453   -13.213533853
 H       -0.820455139    14.031647269   -12.300306079
 H        2.580526947    15.280886582    -9.310979641
 H        2.675141016    17.627009353    -8.553033467
 H       -0.326630273    18.685146790   -11.455034846
 H       -0.443583676    16.359964196   -12.199499016
 H        1.997401733    19.838006321    -8.657955262
 H       -0.170080681    20.550785542   -10.791098231
 H       -1.886803552    21.050801438    -8.663312519
 H       -4.161075196    21.815896557    -8.248873421
 H       -2.985848514    25.880220908    -9.040359281
 H       -0.705939623    25.161905470    -9.475528735
 H       -5.791417539    23.473617980    -8.089700636
 H       -4.913079582    26.384404825    -8.673273359
 H       -7.713992796    23.974419271    -7.717249847
 H       -9.996004741    24.685551528    -7.292307699
 H       -8.826918894    28.795635392    -8.116908915
 H       -6.551196121    28.039495767    -8.522092934
 H       -2.161175692    13.242184533    -9.659076358
 H       -1.512960452    14.712995791   -10.411573059
 H        0.283626006    14.670751077    -8.427033454
 H       -0.234061121    13.012618363    -8.163542578
 H        1.775572713    13.083100304    -9.626198970
 H        0.395044474    12.360914277   -10.488641264
 H        2.263718791    -1.028605482     0.056239953
 H        2.258043634     0.557643485     0.870079410
 H        2.277588738     0.467986885    -0.910642869
 H      -13.557433699    26.292917562    -7.107753853
 H      -12.278204370    25.261929705    -6.419002861
 H      -12.503160816    25.346515400    -8.187801579
 H      -12.478482424    28.588692827    -5.547005279
 C      -10.924060898    27.476678934    -4.513076788
 C      -10.586338237    29.640093126    -5.722310393
 H      -11.098758606    29.409157718    -8.721476468
 C      -11.719345942    27.895879540   -10.146581976
 C      -13.247340309    29.136635188    -8.594538808
 H        2.642955937    22.203448217    -8.055453192
 C        1.852264528    24.128555913    -7.434890784
 C        1.016379353    21.907300060    -6.641902826
 H        1.443552769    24.557370233   -10.418795030
 C        2.856451229    23.064121868   -11.118673824
 C        0.591205501    23.486602376   -12.104494691
 H       -5.861969154    12.044527701     0.680286675
 C       -6.284575606    13.950357836    -0.269125476
 C       -6.495506222    11.712123738    -1.372176824
 H       -3.382095414    14.519431648     0.669774762
 C       -3.225474746    12.917548097     2.128783616
 C       -1.438450901    13.564170716     0.496278968
 H       -0.169594675    -1.925836241    -1.527336900
 C       -2.162738376    -1.061390644    -1.578091834
 C       -0.188928151    -0.209961673    -2.859315634
 H       -1.771103326    -0.905784578     1.458205363
 C       -0.216584737    -2.413097012     1.567721205
 C       -0.234761682    -0.261681880     2.850595112
 H      -11.506722358    26.556301779    -4.378443306
 H      -11.030305225    28.046597526    -3.578837804
 H       -9.864084096    27.192259202    -4.580715502
 H      -10.906604260    30.340537937    -6.503853022
 H       -9.505929025    29.474919919    -5.838223321
 H      -10.713462999    30.169237615    -4.766470520
 H      -10.715224620    27.501701710   -10.359148592
 H      -11.931230504    28.634996259   -10.932277531
 H      -12.434340472    27.075540860   -10.293306386
 H      -13.383935611    29.687597807    -7.655039237
 H      -14.035289509    28.374098224    -8.652789381
 H      -13.453476243    29.852833996    -9.403337934
 H        2.387016194    24.712609280    -8.194742542
 H        2.463343514    24.182304596    -6.521974437
 H        0.914476978    24.654027172    -7.204860334
 H        0.864034787    20.835294833    -6.826753937
 H        0.049021486    22.327177425    -6.329774483
 H        1.678595305    21.979265553    -5.767540881
 H        3.530151632    23.131659815   -10.254726459
 H        3.284440010    23.716347011   -11.893519195
 H        2.920419481    22.039060391   -11.511128203
 H       -0.446991840    23.820441437   -11.967333840
 H        0.561541588    22.498744484   -12.584366280
 H        1.038932363    24.171747514   -12.838589412
 H       -5.827234338    14.573876845     0.509530144
 H       -7.358907714    13.911232400    -0.038156797
 H       -6.196317156    14.486960416    -1.224339505
 H       -6.181340435    10.661313454    -1.437450164
 H       -6.428827853    12.138742052    -2.383877246
 H       -7.563417283    11.698966814    -1.113088726
 H       -4.288705388    12.910938133     2.400709907
 H       -2.720166436    13.539809041     2.881589781
 H       -2.838790999    11.897525414     2.266282710
 H       -1.164775684    14.003784134    -0.472612258
 H       -0.938217557    12.587886073     0.571369390
 H       -0.981221526    14.202967371     1.265140362
 H       -2.552026881    -1.635611544    -0.727746007
 H       -2.469059338    -1.607204435    -2.482248772
 H       -2.695432046    -0.100067343    -1.605749198
 H        0.900748068    -0.127725722    -2.960293566
 H       -0.613330772     0.797669088    -2.976164677
 H       -0.534344879    -0.790614999    -3.726775213
 H       -0.543003507    -2.983914651     0.688791031
 H       -0.665365212    -2.910276554     2.440013044
 H        0.869271662    -2.542739604     1.666440227
 H       -0.541111492     0.791801031     2.917820785
 H        0.847487126    -0.301850036     3.033342077
 H       -0.710354943    -0.775157611     3.698327013

