187   

Si        0.000000000     0.000000000     0.000000000
 C        1.865094801     0.000000000     0.000000000
 C       -0.697145848     1.703008684     0.000000000
 C        0.106056526     2.823107658    -0.234364163
 C       -0.445017138     4.104980602    -0.229474425
 C       -1.809439142     4.294656662     0.002737255
 C       -2.613770578     3.170370251     0.234606773
 C       -2.066537252     1.890978839     0.233933747
 C       -2.434614677     5.612500962     0.018345062
 C       -1.791487960     6.775089364    -0.183453336
 C       -2.434456245     8.085312641    -0.164072824
 C       -1.655398941     9.227384197    -0.388885803
 C       -2.230476108    10.496538120    -0.378726649
 C       -3.598858819    10.653490192    -0.130923660
 C       -4.379304167     9.513089976     0.094586938
 C       -3.803221491     8.244676757     0.072553741
Si       -4.401106005    12.309566069    -0.107813457
 C       -5.761317313    12.368577879     1.113649448
 C       -5.781131257    11.640710343     2.238646664
 C       -6.858993630    11.673783443     3.227360576
 C       -6.754566476    10.858958307     4.364720905
 C       -7.744029198    10.849536119     5.332791325
 C       -8.866582160    11.698899467     5.216621863
 C       -8.972752384    12.515601992     4.074974363
 C       -7.991712415    12.479865173     3.091622243
 N       -9.859818097    11.674167058     6.209952248
 C       -9.417121386    11.456430408     7.597083132
 C      -10.952434195    12.653275013     6.099273437
 C       -8.453693581    12.543421356     8.115685807
 C       -8.410581618    12.579921332     9.654205986
 N       -9.331634305    13.558982242    10.278266196
 C      -10.693905403    13.356857474     9.919073936
 C      -11.304933748    12.165281544    10.357878436
 C      -12.628475411    11.906596175    10.042850620
 C      -13.391416959    12.832987700     9.314578746
 C      -12.786851222    14.022544089     8.903583915
 C      -11.455642172    14.291932088     9.205654797
 C       -8.843818173    14.944528126    10.158109579
 C      -14.787002067    12.509842058     9.008010945
 C      -15.606414611    13.316194928     8.321703011
Si      -17.353322243    12.969936840     7.908359228
 C      -17.620149328    13.261146502     6.111999806
 C      -16.532294164    13.290283061     5.230808535
 C      -16.733828947    13.510756666     3.870491014
 C      -18.024100024    13.696138983     3.357430206
 C      -19.108075718    13.659532613     4.239628200
 C      -18.910279510    13.443016684     5.602480205
 C      -18.184394069    13.923930553     1.924988066
 C      -19.362646874    14.119139023     1.308993714
 C      -19.524475894    14.347021091    -0.123153085
 C      -18.443809172    14.384312871    -1.008000457
 C      -18.644896321    14.605236226    -2.370445827
 C      -19.933734259    14.799603888    -2.877011831
 C      -21.019448200    14.762349247    -1.991538852
 C      -20.816063927    14.535861043    -0.633172902
Si      -20.214149352    15.092229905    -4.672897483
 C      -18.630165798    15.540825846    -5.549740888
 C      -20.929251853    13.515401766    -5.463485210
 C      -21.489460439    16.492836873    -4.861828708
 C      -17.812277996    11.172153612     8.323110802
 C      -18.464488684    14.138226721     8.916459277
 C       -3.127177406    13.657765857     0.313453608
 C       -5.121728485    12.666517885    -1.831551596
 C       -0.600174916    -0.929957698    -1.549471768
 C       -0.654726703    -0.905775708     1.541437806
 H        1.179506725     2.736394345    -0.423022843
 H        0.201744597     4.961281950    -0.411081657
 H       -3.679282893     3.296363969     0.418049218
 H       -2.743391860     1.052897895     0.423656353
 H       -3.511826642     5.601836209     0.213059848
 H       -0.715983050     6.792332452    -0.378847741
 H       -0.588423320     9.125674824    -0.576303546
 H       -1.573871506    11.350059853    -0.566586006
 H       -5.455540560     9.575362878     0.291581143
 H       -4.433016719     7.373924487     0.246539332
 H       -6.574258385    13.067570800     0.869259949
 H       -4.974138634    10.942660518     2.506607132
 H       -5.884763206    10.211516070     4.485327896
 H       -7.650884488    10.181659967     6.184283342
 H       -9.821914921    13.178098900     3.944081398
 H       -8.106411439    13.109854506     2.208545836
 H      -11.675100370    12.504716994     6.923985218
 H      -11.502651598    12.479681232     5.156791795
 H      -10.612212223    13.700266199     6.133571729
 H       -7.862310078    15.015271427    10.659685137
 H       -9.529047938    15.622299125    10.696826919
 H       -8.730645557    15.301895039     9.122980258
 H      -10.731946967    11.456414085    10.952427151
 H      -13.085691311    10.975169158    10.377817524
 H      -13.360847351    14.760707514     8.341224448
 H      -11.013813893    15.224932461     8.868088770
 H      -15.099847548    11.531382991     9.394760970
 H      -15.262046158    14.298562936     7.955577149
 H      -15.502857821    13.144032825     5.574104139
 H      -15.876782182    13.534725673     3.199857605
 H      -20.120782185    13.799931947     3.866339070
 H      -19.795879217    13.425917919     6.243749294
 H      -17.250864125    13.926860473     1.354706202
 H      -20.296181933    14.115456216     1.879418863
 H      -17.430182531    14.239490119    -0.638588689
 H      -17.760571812    14.623023481    -3.013508490
 H      -22.049148704    14.907154106    -2.330426176
 H      -21.672065736    14.508067678     0.038394046
 H      -10.325817613    11.397309107     8.240845940
 H       -8.941045482    10.452314723     7.664508125
 H       -7.440948348    12.366468354     7.707042485
 H       -8.753528050    13.531456499     7.718156619
 H       -8.646336516    11.577518638    10.077046118
 H       -7.379877815    12.817383942    10.001456371
 H        2.261978024    -1.030244725     0.037022988
 H        2.262456490     0.540270525     0.878409750
 H        2.274141270     0.481947365    -0.905296188
 H      -18.815035620    15.764901944    -6.615590769
 H      -17.891191648    14.721713885    -5.505828784
 H      -18.167808456    16.437222061    -5.097739571
 H      -21.028651451    13.743994788    -6.563944264
 C      -19.993980038    12.301920318    -5.310526641
 C      -22.321373163    13.135521424    -4.927997721
 H      -22.429156536    16.125880857    -4.355129119
 C      -21.050257379    17.789097588    -4.157043258
 C      -21.838832888    16.811878691    -6.326335083
 H      -17.526548961    11.019986890     9.404249118
 C      -19.316253134    10.877214209     8.183365256
 C      -17.028700237    10.157203182     7.470652925
 H      -19.525868192    13.868239773     8.643568045
 C      -18.303392764    13.960227803    10.436234086
 C      -18.244338888    15.618399276     8.556976778
 H       -2.334852408    13.601285926    -0.487683076
 C       -3.719479396    15.078403045     0.295077762
 C       -2.450821222    13.417424254     1.675203159
 H       -5.592833063    13.689504229    -1.766815324
 C       -4.053322123    12.700622042    -2.938214036
 C       -6.217641564    11.659920495    -2.225358797
 H       -0.083612288    -1.932738309    -1.519976986
 C       -2.118768916    -1.178218479    -1.576163355
 C       -0.194008253    -0.221687509    -2.854937235
 H       -1.779324069    -0.909689067     1.442988244
 C       -0.185441295    -2.368135678     1.640354914
 C       -0.299888266    -0.175156593     2.849183444
 H      -18.997764978    12.461200912    -5.742823379
 H      -20.418364979    11.431266553    -5.830829123
 H      -19.857519702    11.997206406    -4.262882440
 H      -23.075274871    13.918511757    -5.078310607
 H      -22.311501710    12.876453947    -3.859817685
 H      -22.695682640    12.245410228    -5.454535204
 H      -20.831968389    17.649788764    -3.088532227
 H      -21.852984938    18.538260922    -4.211117612
 H      -20.166196956    18.249643658    -4.617603115
 H      -22.225870329    15.946568666    -6.879754834
 H      -20.988717764    17.217082711    -6.891039476
 H      -22.626529395    17.578400004    -6.365486632
 H      -19.944632298    11.494185802     8.838173648
 H      -19.520737557     9.832300564     8.459505635
 H      -19.682512285    10.996404270     7.153863593
 H      -15.938196938    10.270594972     7.540581041
 H      -17.294429296    10.202459888     6.404326457
 H      -17.254727402     9.133214379     7.799885990
 H      -18.524768022    12.942200191    10.781886859
 H      -19.000119628    14.623545687    10.968774148
 H      -17.297098655    14.221439321    10.793891474
 H      -18.382534525    15.832496235     7.487699200
 H      -17.249695798    15.985978879     8.843897477
 H      -18.970875377    16.247397341     9.091217399
 H       -4.151103340    15.358033418    -0.674335791
 H       -2.931654166    15.816471016     0.503872833
 H       -4.491636814    15.229077667     1.062543517
 H       -1.952719574    12.440828936     1.749871095
 H       -3.152352614    13.494304945     2.518762233
 H       -1.673498379    14.174228192     1.850159965
 H       -3.281175750    13.463275904    -2.775547079
 H       -4.520313574    12.938219796    -3.904966654
 H       -3.546262936    11.734407988    -3.073297991
 H       -7.049903682    11.618509171    -1.509337208
 H       -5.833713550    10.636742085    -2.347471049
 H       -6.657008734    11.939923416    -3.193143047
 H       -2.483301035    -1.747321635    -0.711747610
 H       -2.386635627    -1.767461414    -2.465381308
 H       -2.701776427    -0.248670093    -1.639718109
 H        0.889443993    -0.077493409    -2.954937064
 H       -0.672611978     0.761116387    -2.973953719
 H       -0.505017746    -0.822000027    -3.721889088
 H       -0.462979842    -2.973975560     0.768139812
 H       -0.650023689    -2.853048518     2.511271655
 H        0.899648298    -2.461037342     1.780545098
 H       -0.655938391     0.864767364     2.875171166
 H        0.778705563    -0.160698226     3.054218751
 H       -0.770558003    -0.681853210     3.703720142

