187   

Si        0.000000000     0.000000000     0.000000000
 C        1.865201386     0.000000000     0.000000000
 C       -0.646083860     1.726837778     0.000000000
 C       -0.039928614     2.687435138    -0.819678916
 C       -0.507254356     4.000422024    -0.839984047
 C       -1.556781712     4.401291032    -0.007414386
 C       -2.156003485     3.441429016     0.817764985
 C       -1.718193525     2.118398862     0.810596938
 C       -2.075408137     5.766077454     0.001876155
 C       -1.607300056     6.758935718    -0.773299149
 C       -2.107164871     8.129549886    -0.783370400
 C       -3.153345193     8.567561587     0.033301504
 C       -3.592387806     9.891090683    -0.016797079
 C       -3.011401925    10.800420339    -0.907257875
 C       -1.968284256    10.360445152    -1.732814441
 C       -1.520048145     9.044277017    -1.667088094
Si       -3.569211942    12.556582710    -0.997733341
 C       -2.444836152    13.444901276    -2.142516860
 C       -2.867693666    14.214088514    -3.155065281
 C       -2.004308258    14.937454482    -4.088068930
 C       -2.607238622    15.701993471    -5.097282835
 C       -1.848945046    16.411074081    -6.013203399
 C       -0.441063069    16.446641396    -5.904342081
 C        0.164651889    15.694078371    -4.874930228
 C       -0.609376063    14.943912388    -3.999874232
 N        0.318335530    17.162555135    -6.829789925
 C       -0.238298237    18.328039107    -7.531796246
 C        1.774200155    17.208568985    -6.644746048
 C        0.229035882    19.681481095    -6.963081679
 C       -0.908981488    20.701055222    -6.771324854
 N       -1.871608960    20.416924267    -5.687138878
 C       -1.340474930    19.872632379    -4.500145012
 C       -0.143483350    20.414425025    -3.985892429
 C        0.407574573    19.905219862    -2.822191558
 C       -0.239728533    18.894669289    -2.098537079
 C       -1.444509985    18.385622912    -2.589514929
 C       -1.995809946    18.866286672    -3.770211584
 C       -3.152211572    19.865529505    -6.155297769
 C        0.392143987    18.397719659    -0.877149665
 C       -0.123039197    17.437739316    -0.098867513
Si        0.662756618    16.816216380     1.424618865
 C        0.746700369    14.981706405     1.422429835
 C        0.646444998    14.213283817     0.257587845
 C        0.717787351    12.820492752     0.321341946
 C        0.886920030    12.169012392     1.548482570
 C        0.990006662    12.945735466     2.708854713
 C        0.926543130    14.333502507     2.650111070
 C        0.961040466    10.710183338     1.609927807
 C        1.129707808    10.053382907     2.769966455
 C        1.219249152     8.614278519     2.968035144
 C        1.138884239     7.678030158     1.936716302
 C        1.234390201     6.311993578     2.212700292
 C        1.425335888     5.862353341     3.522599252
 C        1.506962225     6.802806703     4.558734080
 C        1.399205556     8.160131140     4.283460883
Si        1.558137397     4.078321253     3.944719110
 C        1.606168072     3.027743228     2.411445679
 C        3.151112795     3.718461785     4.926031299
 C        0.048235201     3.651073734     5.021468132
 C        2.434084653    17.494090370     1.593920021
 C       -0.357637826    17.410329208     2.917712524
 C       -5.340098426    12.587347522    -1.711756887
 C       -3.655885877    13.357105945     0.721571805
 C       -0.632821956    -0.886015792    -1.562005755
 C       -0.656627447    -0.952144388     1.511459269
 H        0.802880367     2.443395491    -1.472637349
 H       -0.032690069     4.720191788    -1.504674170
 H       -2.980313799     3.728009405     1.468730027
 H       -2.241221180     1.411525787     1.460276008
 H       -2.893035919     5.944555521     0.705248877
 H       -0.785836866     6.572745893    -1.472639487
 H       -3.626456430     7.877174460     0.728900751
 H       -4.398059320    10.182087969     0.662433302
 H       -1.478348881    11.022356603    -2.454235928
 H       -0.705808161     8.724972611    -2.314361281
 H       -1.373358212    13.319920336    -1.924359096
 H       -3.934848808    14.365495966    -3.372996581
 H       -3.694347405    15.719696792    -5.184209166
 H       -2.347179348    16.934825298    -6.822793781
 H        1.241334666    15.702201325    -4.743624819
 H       -0.113106678    14.365800757    -3.218159242
 H        2.246475845    17.761199625    -7.473853869
 H        2.177155154    16.178309131    -6.671166883
 H        2.074998550    17.681286993    -5.693601870
 H       -3.500447397    20.430206291    -7.036041310
 H       -3.912540147    20.009598261    -5.364158368
 H       -3.116136933    18.794820601    -6.412606681
 H        0.343717295    21.238756279    -4.498535354
 H        1.347913878    20.316537405    -2.454483250
 H       -1.961903816    17.588387579    -2.050838306
 H       -2.918948087    18.424408565    -4.133656213
 H        1.346217138    18.895502994    -0.657086019
 H       -1.085027082    16.956963589    -0.341536458
 H        0.504401778    14.674940081    -0.724588434
 H        0.632789369    12.234712815    -0.592195912
 H        1.123612927    12.468847668     3.679033549
 H        1.016842391    14.879131075     3.594049173
 H        0.860576439    10.183758971     0.660269354
 H        1.217297833    10.623761343     3.704847399
 H        0.987367217     8.008255756     0.910851124
 H        1.149301524     5.618912294     1.370157260
 H        1.646550752     6.509177060     5.603038755
 H        1.458285885     8.876778458     5.100190233
 H        0.072198354    18.238751726    -8.600754279
 H       -1.348485383    18.277460776    -7.538280082
 H        0.750803190    19.519241909    -5.997002582
 H        0.993953709    20.123650595    -7.628305868
 H       -0.461916343    21.699411972    -6.538022911
 H       -1.460963707    20.832831222    -7.727255145
 H        2.262872940    -1.029108671     0.046617414
 H        2.262264116     0.551997002     0.872563783
 H        2.274954303     0.475040193    -0.908167256
 H        1.679984832     1.955733800     2.665514879
 H        2.464672780     3.282187940     1.765788697
 H        0.685657226     3.167861090     1.809420128
 H        3.202190277     2.592769931     4.997859195
 C        4.412546470     4.206557209     4.188976016
 C        3.173562205     4.279932646     6.358798596
 H        0.056127264     4.401330887     5.865168546
 C       -1.277685326     3.815885290     4.257052700
 C        0.100013409     2.243979819     5.641951805
 H        2.349112017    18.614910969     1.497171759
 C        3.082527362    17.184922577     2.954960798
 C        3.364062897    16.983242112     0.477688347
 H        0.194215748    17.053270175     3.834642609
 C       -0.467171279    18.943382350     2.996168062
 C       -1.771575688    16.805214056     2.949641077
 H       -5.582202972    13.675378584    -1.884117905
 C       -5.438373341    11.849470962    -3.059986397
 C       -6.410207136    12.011957522    -0.767065322
 H       -4.609244123    12.963658511     1.183304818
 C       -2.502584833    12.971644913     1.658120586
 C       -3.758892831    14.891345890     0.649661466
 H       -0.187977067    -1.922201203    -1.528492597
 C       -2.165513491    -1.023640397    -1.597704625
 C       -0.167585782    -0.211304150    -2.865154185
 H       -1.782405897    -0.892183664     1.448350849
 C       -0.266729206    -2.441791048     1.510142362
 C       -0.222381215    -0.329394396     2.849897919
 H        4.526476564     3.774074124     3.186355153
 H        5.312692658     3.922395157     4.751603176
 H        4.447819920     5.300335982     4.082743181
 H        2.300849083     3.991625431     6.957771520
 H        3.252684505     5.375212087     6.384311457
 H        4.054214055     3.898988928     6.895862279
 H       -1.414702155     4.826182889     3.844599460
 H       -2.127256448     3.640515535     4.930961845
 H       -1.384228877     3.103985335     3.426025406
 H        0.980569667     2.081731792     6.276593085
 H        0.080071992     1.443192057     4.891008115
 H       -0.776614993     2.085233728     6.285916806
 H        2.528625892    17.600437656     3.806187085
 H        4.088838880    17.626078947     3.000242384
 H        3.214417509    16.107976671     3.131281802
 H        2.992466950    17.191886319    -0.535107851
 H        3.548747854    15.901087271     0.542112857
 H        4.346982142    17.468222847     0.553472566
 H        0.505327495    19.446164879     3.072418459
 H       -1.034745158    19.235236465     3.891082696
 H       -1.000130725    19.378763162     2.138425450
 H       -1.776511881    15.705717720     2.911518296
 H       -2.407526051    17.169957492     2.130851616
 H       -2.280128638    17.082536853     3.883455440
 H       -4.732306731    12.215967459    -3.817612460
 H       -6.442813020    11.973957553    -3.487326367
 H       -5.276157809    10.766147326    -2.962739984
 H       -6.479743337    12.542391774     0.190867969
 H       -6.262417440    10.944501849    -0.552857211
 H       -7.403312318    12.094025667    -1.232361228
 H       -2.341224307    11.887852634     1.741015943
 H       -2.702248212    13.330376453     2.676913728
 H       -1.543193549    13.419067201     1.357254801
 H       -4.610131729    15.247166179     0.055926812
 H       -2.849039852    15.357894118     0.243616863
 H       -3.894460099    15.303996215     1.659658968
 H       -2.572774329    -1.586359569    -0.748083034
 H       -2.473581311    -1.568422187    -2.501901486
 H       -2.681211080    -0.053363170    -1.634353721
 H        0.923813649    -0.139892506    -2.954173289
 H       -0.583099186     0.798385774    -2.994385186
 H       -0.507934220    -0.795218019    -3.732606716
 H       -0.618140950    -2.983195751     0.622376217
 H       -0.718708748    -2.948715393     2.375132940
 H        0.816331376    -2.602313694     1.592321985
 H       -0.497183330     0.732083956     2.944797454
 H        0.858731232    -0.409783170     3.027345622
 H       -0.712026926    -0.850806373     3.684635910

