187   

Si        0.000000000     0.000000000     0.000000000
 C        1.865260467     0.000000000     0.000000000
 C       -0.667955560     1.715667668     0.000000000
 C        0.051815167     2.751575806    -0.605874476
 C       -0.446563734     4.053824912    -0.610525683
 C       -1.676864122     4.350259630    -0.017063785
 C       -2.399774521     3.310608093     0.582246380
 C       -1.904979839     2.008908486     0.587697597
 C       -2.236992088     5.697592958     0.001809489
 C       -1.646638761     6.778096967    -0.536427006
 C       -2.204077830     8.126347078    -0.519175123
 C       -3.433585568     8.426539532     0.073085880
 C       -3.928542053     9.730488929     0.066260403
 C       -3.211248038    10.759545080    -0.551318296
 C       -1.979754365    10.460682740    -1.150182663
 C       -1.481867997     9.161008684    -1.128960408
Si       -3.832027710    12.491160739    -0.580557414
 C       -3.412940849    13.325403996    -2.152614932
 C       -3.285121243    12.688488189    -3.324633344
 C       -2.950234536    13.345208543    -4.588544928
 C       -2.845691357    12.564709113    -5.748808595
 C       -2.531311958    13.134888939    -6.971315430
 C       -2.358698243    14.531472771    -7.086393210
 C       -2.464800528    15.315960272    -5.921387958
 C       -2.732695602    14.721375804    -4.695167421
 N       -2.039714234    15.101425895    -8.331208618
 C       -2.557858747    14.428134183    -9.535179061
 C       -2.100288565    16.570424875    -8.427806810
 C       -4.095237587    14.413902937    -9.604827251
 C       -4.627452295    14.049479943   -11.000382694
 N       -4.210980724    14.944005366   -12.105477102
 C       -4.093543547    16.311260518   -11.762600937
 C       -5.210279252    16.941766623   -11.174358510
 C       -5.148670251    18.278543780   -10.819578753
 C       -3.993524725    19.038771210   -11.060984060
 C       -2.899747940    18.416193821   -11.665642403
 C       -2.944212622    17.073222702   -12.024385336
 C       -3.134578326    14.380610634   -12.936586266
 C       -3.981058283    20.449161399   -10.665881977
 C       -2.936095402    21.266804022   -10.847408797
Si       -2.858145896    23.031610297   -10.377690587
 C       -2.264566067    24.026351080   -11.805471757
 C       -2.386350562    23.531456201   -13.108099689
 C       -1.937712835    24.282031319   -14.194191993
 C       -1.369489960    25.544717095   -14.003995185
 C       -1.255105010    26.040456188   -12.698175043
 C       -1.697852097    25.292097389   -11.610626799
 C       -0.886868514    26.364452295   -15.110612859
 C       -0.937382372    26.007515838   -16.405182324
 C       -0.455298188    26.825888303   -17.512909883
 C        0.117223465    28.086641220   -17.325884895
 C        0.564947865    28.835189729   -18.414459007
 C        0.443411576    28.340105652   -19.716520592
 C       -0.131218475    27.075987934   -19.906733505
 C       -0.572105284    26.328880860   -18.818147058
Si        1.028858823    29.314398922   -21.164650083
 C        1.405303178    31.080665476   -20.697359273
 C        2.608632056    28.518739871   -21.867900805
 C       -0.323798730    29.261533283   -22.502889695
 C       -4.560991454    23.679497717    -9.834011753
 C       -1.643575269    23.207170022    -8.923348702
 C       -5.720133784    12.525011402    -0.348954347
 C       -3.025347544    13.455085699     0.847448476
 C       -0.631334798    -0.901677125    -1.552720338
 C       -0.646295355    -0.929350283     1.530914092
 H        1.020008106     2.581832719    -1.085357827
 H        0.135127954     4.842354112    -1.084620331
 H       -3.360710014     3.518979341     1.048819027
 H       -2.515651420     1.239396148     1.067776000
 H       -3.206781748     5.783042640     0.500372152
 H       -0.676387641     6.691239719    -1.034569141
 H       -4.015473470     7.641132531     0.551377816
 H       -4.891148509     9.905250041     0.554206346
 H       -1.376369781    11.227243582    -1.648850508
 H       -0.521861998     8.948423566    -1.595696632
 H       -3.285647516    14.415354184    -2.076999509
 H       -3.415644004    11.601153590    -3.425602593
 H       -3.001370143    11.486604677    -5.688682804
 H       -2.422378515    12.495654734    -7.842183818
 H       -2.329729285    16.391975366    -5.962973549
 H       -2.791196537    15.350081598    -3.805526698
 H       -1.897995058    16.895011194    -9.464473380
 H       -1.309145878    17.006556777    -7.791705373
 H       -3.075310480    16.991737073    -8.132353305
 H       -3.453053426    13.390069180   -13.307402529
 H       -2.169286357    14.265894819   -12.419834174
 H       -2.988275420    15.017872253   -13.827479437
 H       -6.121643311    16.372151474   -11.007216260
 H       -6.017023488    18.748476952   -10.356503445
 H       -1.991520363    18.986299710   -11.868804215
 H       -2.073781988    16.624327943   -12.492692411
 H       -4.921630085    20.777817605   -10.205279406
 H       -2.002646958    20.902022483   -11.308927845
 H       -2.827842620    22.551682321   -13.318249812
 H       -2.037926159    23.873814241   -15.198278040
 H       -0.815606207    27.021569448   -12.528961837
 H       -1.581919885    25.728985757   -10.615052306
 H       -0.462940323    27.328571740   -14.815018069
 H       -1.361910418    25.043332348   -16.700384511
 H        0.219585747    28.496805043   -16.322876670
 H        1.005074682    29.814140238   -18.205188520
 H       -0.252702163    26.638322675   -20.901687262
 H       -1.014284262    25.348623129   -18.985868406
 H       -2.130596666    14.949471431   -10.422626752
 H       -2.152418493    13.392644364    -9.570146871
 H       -4.498336359    13.701284272    -8.858381099
 H       -4.488860561    15.403720403    -9.296145908
 H       -4.346416504    13.003561337   -11.250909143
 H       -5.744376483    14.072468771   -10.981076880
 H        2.263257661    -1.028375877     0.064268668
 H        2.258688651     0.564108001     0.865520101
 H        2.277440125     0.460005429    -0.914825409
 H        1.714269209    31.668370156   -21.580293073
 H        2.220031914    31.143051904   -19.954855931
 H        0.515783087    31.574201295   -20.265370345
 H        2.945708650    29.198459465   -22.703159917
 C        3.742009906    28.440949340   -20.828453916
 C        2.384536900    27.114911261   -22.457742090
 H       -0.460868349    28.170991534   -22.760625354
 C       -1.674854919    29.798580649   -21.996819303
 C        0.059977992    30.005803530   -23.794192857
 H       -4.916739457    22.977791820    -9.025075501
 C       -4.511952524    25.100054352    -9.243436402
 C       -5.590149462    23.656050611   -10.978816560
 H       -1.650338568    24.299788352    -8.641690433
 C       -2.065109700    22.393436485    -7.687117621
 C       -0.203455561    22.824798925    -9.308771552
 H       -5.923117724    12.027564991     0.643068675
 C       -6.298997623    13.950151857    -0.291790287
 C       -6.457448015    11.732424255    -1.443421325
 H       -3.443488006    14.501407849     0.792232205
 C       -3.363219580    12.877059978     2.232780902
 C       -1.495538488    13.543642095     0.701801037
 H       -0.167528175    -1.929577231    -1.522446279
 C       -2.161547245    -1.067772070    -1.576403922
 C       -0.188134822    -0.216267708    -2.858160585
 H       -1.772068595    -0.919953227     1.447875544
 C       -0.194043119    -2.399594861     1.591620093
 C       -0.263324041    -0.234042922     2.850017459
 H        4.023670801    29.418051791   -20.415357482
 H        4.650473970    28.030176691   -21.291905300
 H        3.501878250    27.779301165   -19.983713415
 H        1.638557039    27.093155274   -23.262145055
 H        2.086247948    26.376831645   -21.699921109
 H        3.319927929    26.739506302   -22.897954952
 H       -2.043563050    29.273175716   -21.104168492
 H       -2.445793826    29.668237763   -22.769596770
 H       -1.650267695    30.871092692   -21.762707705
 H        0.980637532    29.627515104   -24.256929238
 H        0.179843225    31.087184253   -23.645898373
 H       -0.733371010    29.885489036   -24.546269546
 H       -3.871267444    25.182200726    -8.356325851
 H       -5.518131052    25.408186036    -8.923388479
 H       -4.179512901    25.854551829    -9.970529231
 H       -5.721003487    22.664705938   -11.433568609
 H       -5.341768684    24.357429777   -11.788783523
 H       -6.578666392    23.957032609   -10.604207470
 H       -3.053471656    22.671766936    -7.299197634
 H       -1.354396324    22.562582224    -6.865458619
 H       -2.072132865    21.309306959    -7.869997708
 H        0.183337123    23.392288568   -10.167154422
 H       -0.090967118    21.756509907    -9.538925699
 H        0.478370577    23.033414303    -8.471929636
 H       -5.879926374    14.558908728     0.519431721
 H       -7.383276347    13.907981738    -0.114153539
 H       -6.163880837    14.503692075    -1.231607313
 H       -6.139704287    10.682957524    -1.513534352
 H       -6.342902616    12.177986074    -2.442457306
 H       -7.536328067    11.714579506    -1.235395600
 H       -4.438704920    12.867778150     2.450833301
 H       -2.895884130    13.487290807     3.019220982
 H       -2.984524135    11.854527424     2.374026579
 H       -1.172597020    13.994609570    -0.246558168
 H       -1.001457527    12.565225892     0.789624029
 H       -1.076342701    14.171672810     1.500587873
 H       -2.550205608    -1.642931823    -0.726460277
 H       -2.466504432    -1.613904742    -2.480839301
 H       -2.695543443    -0.107208855    -1.604380694
 H        0.901495498    -0.132044600    -2.958469914
 H       -0.613973026     0.790475547    -2.977363269
 H       -0.531667063    -0.799305318    -3.724725258
 H       -0.494614228    -2.983807240     0.712328400
 H       -0.649953536    -2.896516333     2.460345573
 H        0.891951322    -2.509367844     1.710998242
 H       -0.595672798     0.812445027     2.903413329
 H        0.817887147    -0.246355086     3.042394681
 H       -0.734013738    -0.750049024     3.698908982

