187   

Si        0.000000000     0.000000000     0.000000000
 C        1.865325245     0.000000000     0.000000000
 C       -0.670964076     1.714536008     0.000000000
 C        0.106259390     2.785415461    -0.453652825
 C       -0.404253351     4.083195957    -0.452651257
 C       -1.703239972     4.339836785    -0.005745818
 C       -2.482755133     3.265153669     0.442412545
 C       -1.975643187     1.968432279     0.443206917
 C       -2.278217346     5.680932674     0.012972629
 C       -1.637963922     6.792330677    -0.387915600
 C       -2.209679092     8.134589018    -0.370583132
 C       -3.508066121     8.395387649     0.075492095
 C       -4.014397414     9.694911136     0.074680225
 C       -3.236585897    10.760283697    -0.389293702
 C       -1.935176793    10.501455815    -0.840267288
 C       -1.428139481     9.205133565    -0.825446401
Si       -3.874203535    12.486132381    -0.403896276
 C       -3.231405791    13.432464067    -1.829736844
 C       -2.909253660    12.884264807    -3.009307313
 C       -2.394430813    13.636145098    -4.154026004
 C       -2.093541249    12.945112648    -5.337151694
 C       -1.603863838    13.607684712    -6.449872166
 C       -1.440663699    15.011246984    -6.431661284
 C       -1.743009689    15.706010638    -5.244322635
 C       -2.190232613    15.018117318    -4.123801100
 N       -0.943645279    15.662664517    -7.567999811
 C       -1.340493696    15.144715664    -8.887116044
 C       -0.788550852    17.121230080    -7.503890344
 C       -2.851835343    14.935043259    -9.095681481
 C       -3.653983827    16.227785801    -9.328306689
 N       -3.382961377    16.953676677   -10.586043985
 C       -2.300705602    17.869338586   -10.523043002
 C       -2.437119618    18.963977127    -9.645480128
 C       -1.419365421    19.896816180    -9.533728216
 C       -0.253566478    19.788801528   -10.307796355
 C       -0.137135452    18.717822903   -11.196864143
 C       -1.150520048    17.772972220   -11.319334442
 C       -3.437643496    16.102750732   -11.784201090
 C        0.792032407    20.802807750   -10.150322664
 C        1.943473381    20.801990755   -10.833687313
Si        3.282045899    22.038165896   -10.679589911
 C        4.885999637    21.170123785   -10.444445546
 C        4.909735262    19.863290282    -9.945494974
 C        6.121542495    19.198052819    -9.764233232
 C        7.333354428    19.826669681   -10.064205155
 C        7.306281735    21.138336257   -10.556537605
 C        6.097817743    21.804346439   -10.744074111
 C        8.624155833    19.168749264    -9.889978019
 C        8.788067412    17.917391216    -9.428144511
 C       10.077757253    17.257696457    -9.253186002
 C       11.290848233    17.880862293    -9.556893878
 C       12.501395541    17.212376928    -9.374119276
 C       12.524420897    15.905842069    -8.876255097
 C       11.308862355    15.278761092    -8.570494409
 C       10.102062907    15.946189244    -8.759735004
Si       14.113880037    15.010225272    -8.629434536
 C       15.573439128    16.169224488    -8.709646271
 C       14.054957643    14.142438024    -6.936198552
 C       14.308552692    13.683925928    -9.980572363
 C        3.340629970    23.069221423   -12.277062243
 C        2.982297121    23.203501668    -9.207781789
 C       -5.775656860    12.488257132    -0.468922702
 C       -3.317463789    13.354902758     1.194474612
 C       -0.627406217    -0.909453309    -1.549461448
 C       -0.651355048    -0.915995497     1.536574349
 H        1.129241836     2.647708129    -0.814790176
 H        0.222929477     4.899719612    -0.805976982
 H       -3.497294160     3.442721891     0.794153228
 H       -2.630772636     1.170507709     0.803554755
 H       -3.304290555     5.733867145     0.388135877
 H       -0.611460749     6.737772624    -0.762761857
 H       -4.136305670     7.581865073     0.432856921
 H       -5.033777660     9.837367484     0.443209088
 H       -1.281952547    11.297779220    -1.213922807
 H       -0.413765331     9.023538024    -1.175803320
 H       -3.139195890    14.515229934    -1.658723946
 H       -3.001430029    11.806501742    -3.207158455
 H       -2.234114758    11.864120892    -5.379682997
 H       -1.340220757    13.040951220    -7.337713307
 H       -1.627934728    16.783219039    -5.187612000
 H       -2.401202569    15.577263079    -3.211064319
 H       -0.337460504    17.496655009    -8.441619134
 H       -0.086373273    17.376825298    -6.689017583
 H       -1.735808923    17.661851798    -7.345096839
 H       -4.403000901    15.566529455   -11.794551274
 H       -2.626348984    15.362147791   -11.858338620
 H       -3.412723483    16.743987809   -12.683618152
 H       -3.351773338    19.075231337    -9.066037203
 H       -1.535550247    20.735275634    -8.846348907
 H        0.757779339    18.615105810   -11.812815954
 H       -1.032569068    16.955287832   -12.024197787
 H        0.540345890    21.572116221    -9.408868917
 H        2.162260365    20.018607419   -11.579220259
 H        3.992875640    19.322859087    -9.687308991
 H        6.114896631    18.179069933    -9.381084800
 H        8.239115859    21.645208619   -10.795922070
 H        6.137696507    22.825620573   -11.132341038
 H        9.489449267    19.777354732   -10.168162167
 H        7.922203853    17.309230933    -9.149329289
 H       11.300776729    18.898952705    -9.941629426
 H       13.417605671    17.751423463    -9.630502327
 H       11.265470925    14.258806293    -8.177854650
 H        9.168031841    15.442173755    -8.518268555
 H       -0.936526336    15.821526660    -9.674202211
 H       -0.811420653    14.171268510    -9.030644411
 H       -3.004935002    14.237525979    -9.940151459
 H       -3.279980084    14.416034117    -8.211474526
 H       -4.743339602    15.980968629    -9.338555236
 H       -3.503601280    16.918195522    -8.468636026
 H        2.263165473    -1.029279207     0.050464346
 H        2.259375553     0.552073246     0.872820067
 H        2.276594678     0.471126489    -0.909659547
 H       16.518909275    15.631623406    -8.516114278
 H       15.485678408    16.969226614    -7.952170432
 H       15.660918395    16.649833166    -9.699680681
 H       13.184424656    13.425408269    -6.986212134
 C       15.320285061    13.325069829    -6.620852939
 C       13.790124971    15.123580504    -5.779920502
 H       15.319264606    13.214375083    -9.803645427
 C       13.247911470    12.570823474    -9.909067491
 C       14.301610985    14.280984003   -11.399766711
 H        4.159819351    23.830612111   -12.125920112
 C        3.700334910    22.223371359   -13.511432696
 C        2.030428034    23.827686943   -12.551816177
 H        1.945871140    23.626223516    -9.351496301
 C        3.015775878    22.462676304    -7.858246165
 C        3.972902477    24.379827828    -9.150081402
 H       -6.121845562    11.933575988     0.450434417
 C       -6.382026901    13.902387503    -0.425211893
 C       -6.318701800    11.751587668    -1.706603743
 H       -3.735394144    14.401423325     1.142782057
 C       -3.861785606    12.684348608     2.467736787
 C       -1.785112352    13.457388551     1.298753483
 H       -0.158437290    -1.935005646    -1.515888332
 C       -2.156582235    -1.083943209    -1.575618279
 C       -0.185778858    -0.225734321    -2.856414747
 H       -1.776185257    -0.921517251     1.441422654
 C       -0.181074649    -2.379017568     1.623652023
 C       -0.292817584    -0.195461620     2.848906857
 H       15.536769449    12.552157293    -7.369550483
 H       15.197549627    12.798560807    -5.663071296
 H       16.217791562    13.948763904    -6.514632039
 H       12.867207724    15.707147957    -5.908707916
 H       14.611775199    15.834975546    -5.623250617
 H       13.674681897    14.571637710    -4.836156645
 H       13.249995681    12.027619741    -8.955599697
 H       13.439073939    11.819726485   -10.689419734
 H       12.227956349    12.940576691   -10.085392218
 H       15.086741283    15.030571940   -11.562180760
 H       13.339770617    14.744010541   -11.663403003
 H       14.475179288    13.489106797   -12.142500394
 H        4.649900986    21.679749443   -13.405878488
 H        3.814945253    22.871646338   -14.391971889
 H        2.924472988    21.489510541   -13.768955579
 H        1.752391115    24.522528423   -11.748877243
 H        1.175341858    23.158205617   -12.723152432
 H        2.131304443    24.435378941   -13.462615903
 H        2.305664348    21.626925163    -7.796391028
 H        2.754406093    23.151783804    -7.042868822
 H        4.012098947    22.064572010    -7.616176147
 H        3.939923714    25.021994428   -10.039415806
 H        5.013734437    24.056744665    -9.006203352
 H        3.734855638    25.029454690    -8.295021476
 H       -6.103175406    14.468996096     0.472301006
 H       -7.479769646    13.840102146    -0.419186001
 H       -6.114335470    14.508754057    -1.301889251
 H       -5.978945914    10.709138529    -1.779196126
 H       -6.053581128    12.250282730    -2.650293704
 H       -7.416568552    11.716443141    -1.674123615
 H       -4.957968813    12.659850782     2.512947189
 H       -3.530412552    13.240348816     3.356767927
 H       -3.498447043    11.654866385     2.598455756
 H       -1.323281104    13.975297116     0.446932349
 H       -1.297341272    12.476572925     1.394924493
 H       -1.505308857    14.028228381     2.195444561
 H       -2.544087579    -1.657182373    -0.723905542
 H       -2.456275854    -1.636347966    -2.478083560
 H       -2.695514727    -0.126396411    -1.610440805
 H        0.903609658    -0.136359716    -2.955522701
 H       -0.615571890     0.778878805    -2.979138019
 H       -0.525341680    -0.812681032    -3.721876699
 H       -0.463671514    -2.979527692     0.749407924
 H       -0.640664457    -2.869434796     2.494158836
 H        0.904792079    -2.472851940     1.757164210
 H       -0.644338873     0.845718437     2.883020947
 H        0.786291926    -0.186070652     3.052319428
 H       -0.763466402    -0.706726477     3.700706894

