187   

Si        0.000000000     0.000000000     0.000000000
 C        1.865478103     0.000000000     0.000000000
 C       -0.680313343     1.710478204     0.000000000
 C        0.147648074     2.819677928    -0.198486526
 C       -0.382110033     4.110064415    -0.195901449
 C       -1.749812540     4.320529990    -0.003182649
 C       -2.578766740     3.207711271     0.193274485
 C       -2.052334626     1.919151554     0.196640103
 C       -2.348342030     5.651205548     0.007321974
 C       -1.668595460     6.797895162    -0.163049553
 C       -2.268799734     8.127861140    -0.152251280
 C       -1.441489547     9.242361128    -0.342850307
 C       -1.969639961    10.531049364    -0.340405278
 C       -3.339642996    10.736051507    -0.136933085
 C       -4.168031412     9.624145138     0.053028932
 C       -3.637739986     8.335068483     0.039784953
Si       -4.057555104    12.428988058    -0.129917359
 C       -5.523952914    12.554780100     0.955310651
 C       -5.710855234    11.815870115     2.057075292
 C       -6.885759382    11.918506735     2.924218715
 C       -6.966036226    11.087555595     4.052862194
 C       -8.055120878    11.144919639     4.904874704
 C       -9.092194306    12.074414198     4.672390991
 C       -9.016875381    12.902772956     3.540664776
 C       -7.936594587    12.801972183     2.670694425
 N      -10.181902042    12.095869874     5.567772355
 C       -9.839308084    12.161333980     7.007186993
 C      -11.326831600    12.946754825     5.205785217
 C       -8.601877183    13.001198590     7.364403112
 C       -8.718012860    14.474800511     6.931516198
 N       -7.405782118    15.119235568     6.699101759
 C       -6.500889510    14.998661904     7.785053055
 C       -6.932583216    15.424231330     9.058069630
 C       -6.086554980    15.327323260    10.150376115
 C       -4.775701199    14.846269052    10.009206834
 C       -4.344434942    14.449584154     8.741598558
 C       -5.187559485    14.525867445     7.638353707
 C       -6.855191842    14.812240300     5.366690889
 C       -3.923802095    14.764619786    11.197372231
 C       -2.658810616    14.323162168    11.187294633
Si       -1.593477928    14.220501399    12.670064721
 C       -2.570506955    13.919909347    14.199465672
 C       -3.742895502    13.157742130    14.135823947
 C       -4.496327254    12.919328023    15.283933281
 C       -4.089496062    13.423712491    16.522586581
 C       -2.910961036    14.178457422    16.585686187
 C       -2.158403159    14.422609778    15.439314589
 C       -4.846466417    13.199050710    17.749670982
 C       -5.988896796    12.495460734    17.825121121
 C       -6.747158816    12.269763414    19.051121022
 C       -6.346080042    12.776418918    20.289971923
 C       -7.101920569    12.536117003    21.437370208
 C       -8.281325789    11.788101893    21.368699050
 C       -8.686346205    11.279704469    20.127029956
 C       -7.926968239    11.516300579    18.984618684
Si       -9.290525841    11.461743544    22.873266050
 C       -8.755075110    12.531674952    24.304509623
 C      -11.116203900    11.794778252    22.449469326
 C       -9.109058580     9.634668837    23.375680652
 C       -0.374842626    12.779445586    12.431313902
 C       -0.604712993    15.838069121    12.827945499
 C       -2.761552989    13.687301417     0.468854725
 C       -4.580599496    12.880123277    -1.901745787
 C       -0.601650483    -0.928986552    -1.548950186
 C       -0.661578906    -0.897939452     1.542322739
 H        1.224819840     2.718050851    -0.356881078
 H        0.284605024     4.956770170    -0.348634527
 H       -3.647007608     3.349608174     0.346267294
 H       -2.747289493     1.090339093     0.359215389
 H       -3.430435383     5.664487218     0.168562593
 H       -0.586844478     6.785052944    -0.324696026
 H       -0.373223169     9.102782622    -0.496501149
 H       -1.275809317    11.361013274    -0.499104048
 H       -5.247297969     9.724533972     0.211669119
 H       -4.303671534     7.486263467     0.184976392
 H       -6.259241841    13.311913269     0.643177572
 H       -4.987748537    11.060229161     2.396085641
 H       -6.164188877    10.376087316     4.257125874
 H       -8.121104003    10.466537156     5.752308037
 H       -9.797049123    13.626603012     3.328856295
 H       -7.910006988    13.440771348     1.786729631
 H      -12.185528294    12.678163045     5.847155970
 H      -11.633577629    12.732802547     4.166254289
 H      -11.141515385    14.027746656     5.308247344
 H       -7.604687855    15.062077736     4.595405591
 H       -6.575705222    13.754311563     5.224042248
 H       -5.973524165    15.449192433     5.179057401
 H       -7.933138282    15.830997734     9.180015975
 H       -6.441794480    15.644569724    11.131320356
 H       -3.330958272    14.070463578     8.605480248
 H       -4.819659561    14.196367137     6.670759236
 H       -4.428901419    15.098923485    12.114911775
 H       -2.172912128    14.005007726    10.252305416
 H       -4.107755692    12.732126664    13.194693607
 H       -5.408265991    12.330229375    15.207032193
 H       -2.576260199    14.579767494    17.540245903
 H       -1.248111474    15.017947748    15.550460522
 H       -4.413388158    13.655170485    18.644707034
 H       -6.421220775    12.039095848    16.929784631
 H       -5.434155113    13.365337513    20.369833747
 H       -6.736462067    12.957349564    22.378059984
 H       -9.599606847    10.688969376    20.012608989
 H       -8.256785886    11.111707975    18.029688436
 H      -10.720386842    12.528309138     7.577034928
 H       -9.673112354    11.107648555     7.340147263
 H       -8.423522050    12.945599141     8.456133775
 H       -7.695171008    12.551833354     6.909514249
 H       -9.313421222    14.569422565     5.997352938
 H       -9.259641034    15.064953994     7.703118328
 H        2.263071651    -1.030020706     0.037156357
 H        2.262863032     0.540188537     0.878403419
 H        2.273853448     0.481543976    -0.905817665
 H       -9.395107613    12.362574751    25.188867686
 H       -8.824341316    13.603787798    24.045370160
 H       -7.712906249    12.323417122    24.603742921
 H      -11.374184956    11.081746481    21.613164899
 C      -12.078581299    11.518008407    23.618120071
 C      -11.349908571    13.226824479    21.935217327
 H       -9.696050035     9.522683581    24.332843105
 C       -9.687811727     8.649347464    22.344660413
 C       -7.647517265     9.244853937    23.663322840
 H        0.209357174    13.016090339    11.495641207
 C        0.622338112    12.632158635    13.593681144
 C       -1.096143236    11.436555229    12.217489271
 H        0.078638570    15.702561751    13.715307151
 C        0.269817550    16.136279586    11.596990743
 C       -1.511716397    17.051198083    13.101422853
 H       -1.905629681    13.629393053    -0.263543391
 C       -3.282394667    15.135557422     0.477356136
 C       -2.220525615    13.343757034     1.868416579
 H       -4.995783552    13.927685038    -1.848688158
 C       -3.406646679    12.880699021    -2.896186150
 C       -5.687744180    11.953155762    -2.434795666
 H       -0.086015828    -1.932386112    -1.519083567
 C       -2.120425149    -1.176372752    -1.576211736
 C       -0.194646361    -0.221711228    -2.854749202
 H       -1.786358954    -0.888939689     1.445515301
 C       -0.208291653    -2.365353840     1.640721003
 C       -0.296525982    -0.171078746     2.849380654
 H      -12.020775697    10.488494597    23.994522262
 H      -13.118058593    11.667514972    23.291576486
 H      -11.924602437    12.194602013    24.469201659
 H      -10.735071333    13.478793789    21.059226303
 H      -11.165854960    13.993178726    22.699819357
 H      -12.396240511    13.348600393    21.620819539
 H      -10.754480220     8.807217476    22.141334695
 H       -9.596863948     7.618938136    22.718470762
 H       -9.153236792     8.673616743    21.384595249
 H       -7.181708736     9.848675002    24.452740281
 H       -7.005473309     9.308953277    22.772919429
 H       -7.596149365     8.200965592    24.004672641
 H        1.245897719    13.521847198    13.748596814
 H        1.315886272    11.803031570    13.391570705
 H        0.133637764    12.395071478    14.549622850
 H       -1.787253972    11.443411829    11.363563650
 H       -1.663699544    11.111054017    13.101205644
 H       -0.363357415    10.642754081    12.014534277
 H        1.000781291    15.347284198    11.379481753
 H        0.851052498    17.054819176    11.763234207
 H       -0.320112358    16.308237863    10.685615112
 H       -2.131315175    16.940096525    14.002064957
 H       -2.187047482    17.276616292    12.263011578
 H       -0.901582319    17.952067171    13.256419106
 H       -3.617909217    15.484015947    -0.507633564
 H       -2.479970898    15.820971446     0.786823786
 H       -4.107316460    15.288925670     1.187430009
 H       -1.774429008    12.341337495     1.929790114
 H       -2.989285459    13.411878558     2.652117014
 H       -1.427664773    14.050616271     2.150788310
 H       -2.612883272    13.591582869    -2.633524102
 H       -3.760529022    13.172116682    -3.895830941
 H       -2.944074971    11.890008045    -3.013157351
 H       -6.589549348    11.943909794    -1.807594433
 H       -5.353925241    10.911770108    -2.550917059
 H       -6.009365585    12.284564827    -3.432358920
 H       -2.486644757    -1.740772486    -0.709407681
 H       -2.387393246    -1.770080134    -2.462770380
 H       -2.702647741    -0.246859779    -1.645561122
 H        0.889038595    -0.079343645    -2.955128248
 H       -0.671442498     0.761914973    -2.973979263
 H       -0.506911027    -0.821769997    -3.721443163
 H       -0.495419037    -2.968723083     0.769896597
 H       -0.675347173    -2.844489148     2.513546863
 H        0.876166640    -2.470291278     1.777442991
 H       -0.640345584     0.872906776     2.875696758
 H        0.782415374    -0.169343618     3.053120740
 H       -0.772115755    -0.672022889     3.704640462

