187   

Si        0.000000000     0.000000000     0.000000000
 C        1.865162042     0.000000000     0.000000000
 C       -0.672790375     1.713781052     0.000000000
 C        0.088485243     2.778668925    -0.493328346
 C       -0.422406784     4.076285496    -0.492710037
 C       -1.705263348     4.338920622    -0.004708602
 C       -2.468887865     3.270268194     0.483306737
 C       -1.962093875     1.973484725     0.482898882
 C       -2.280940867     5.679575578     0.015719300
 C       -1.657678613     6.786824265    -0.421888624
 C       -2.234099499     8.127235341    -0.401113629
 C       -1.470907584     9.196096239    -0.890369424
 C       -1.978855007    10.492331164    -0.890744784
 C       -3.266769139    10.749653757    -0.403812663
 C       -4.029913885     9.685227565     0.086257421
 C       -3.516099364     8.388746119     0.089714931
Si       -3.936568674    12.460577982    -0.404574600
 C       -5.747042969    12.430001317    -0.165148143
 C       -6.452101956    13.146856398     0.719698916
 C       -7.909362608    13.064060221     0.849212241
 C       -8.557814937    13.857439507     1.808658044
 C       -9.933363473    13.809419259     1.963641098
 C      -10.715649445    12.994015326     1.118545021
 C      -10.069808901    12.199665320     0.157347504
 C       -8.684151123    12.222918886     0.047892809
 N      -12.115806691    12.972525843     1.308734927
 C      -12.780010735    14.292060275     1.381916418
 C      -12.872600251    11.989656537     0.515483931
 C      -12.251058689    15.374633430     0.425825971
 C      -12.270774877    14.943396693    -1.051690102
 N      -11.678956830    15.946121135    -1.966235189
 C      -10.370728819    16.358583246    -1.593960113
 C       -9.392418933    15.361250526    -1.410931221
 C       -8.102445726    15.707835355    -1.048241618
 C       -7.723546801    17.052004561    -0.915445531
 C       -8.687866782    18.038248279    -1.128455250
 C       -9.996324991    17.704202335    -1.464897614
 C      -12.625525961    17.023616699    -2.303186745
 C       -6.344078329    17.355323456    -0.529016400
 C       -5.866212139    18.596163483    -0.371141217
Si       -4.159365927    19.035761706     0.108355166
 C       -4.198548783    20.237939691     1.499672258
 C       -5.305842858    20.281275451     2.356098601
 C       -5.343941922    21.188274459     3.412020257
 C       -4.273578026    22.061606977     3.646402446
 C       -3.167145146    22.009862256     2.793710989
 C       -3.128293056    21.107949912     1.731215647
 C       -4.360401699    22.994014404     4.765583554
 C       -3.409896263    23.885494403     5.093927284
 C       -3.495706545    24.818243176     6.212768037
 C       -4.600202768    24.872324793     7.066718479
 C       -4.639972917    25.780553436     8.124724956
 C       -3.576484003    26.660864720     8.347029947
 C       -2.467913251    26.609433374     7.490903220
 C       -2.428594509    25.698097134     6.439530060
Si       -3.612537735    27.865749353     9.738438549
 C       -5.313547181    27.992125455    10.493612920
 C       -2.385335108    27.315930000    11.085816041
 C       -3.060862721    29.560986277     9.070992011
 C       -3.220713848    17.497642436     0.725170508
 C       -3.254021325    19.754629776    -1.398011456
 C       -3.085168315    13.500749302     0.935900415
 C       -3.592788088    13.258491095    -2.100650019
 C       -0.628451046    -0.908082643    -1.550069055
 C       -0.648761819    -0.920043622     1.535499078
 H        1.098924811     2.635855532    -0.886308004
 H        0.191456619     4.887745332    -0.879381397
 H       -3.471047920     3.452504665     0.866927710
 H       -2.605476832     1.180358301     0.873742182
 H       -3.293664647     5.736184113     0.425803659
 H       -0.645073889     6.730582720    -0.831861648
 H       -0.469411300     9.013702627    -1.275167213
 H       -1.338189376    11.286157504    -1.284747423
 H       -5.039984353     9.829360275     0.483399433
 H       -4.127864503     7.577113331     0.479508968
 H       -6.251972555    11.735857579    -0.859654348
 H       -5.990389681    13.851279059     1.423121814
 H       -7.971672217    14.517525753     2.449508980
 H      -10.415229783    14.403893529     2.735510052
 H      -10.637425893    11.559519619    -0.510212220
 H       -8.205668161    11.582950549    -0.695528613
 H      -13.910492214    11.947382885     0.889402824
 H      -12.441506964    10.984163098     0.672461327
 H      -12.898959647    12.201335289    -0.564683513
 H      -13.547476281    16.574996583    -2.711376943
 H      -12.193375278    17.648816359    -3.105109976
 H      -12.897670699    17.669031392    -1.454102684
 H       -9.654804040    14.311702562    -1.537205341
 H       -7.364692165    14.917067327    -0.886538395
 H       -8.422480621    19.091332912    -1.029315233
 H      -10.720381882    18.499423521    -1.609166322
 H       -5.732564206    16.455681862    -0.372075953
 H       -6.506738038    19.477042897    -0.544096966
 H       -6.168093596    19.619529477     2.222587067
 H       -6.215676900    21.214602480     4.063072792
 H       -2.322867214    22.677927485     2.953579618
 H       -2.238590251    21.115476997     1.095820887
 H       -5.283478968    22.924250884     5.348488991
 H       -2.487149539    23.955163277     4.510455414
 H       -5.443001349    24.201021867     6.912809898
 H       -5.530274253    25.774902264     8.759598557
 H       -1.608030013    27.273785402     7.615549355
 H       -1.558629109    25.672269089     5.786076270
 H      -13.872945654    14.156501982     1.229010941
 H      -12.659635661    14.649147552     2.434207344
 H      -12.842908210    16.298781913     0.559195602
 H      -11.211786550    15.647641974     0.710915681
 H      -11.693114838    13.998040212    -1.182728323
 H      -13.307300711    14.724024911    -1.382860916
 H        2.263217528    -1.028658456     0.060399165
 H        2.259239680     0.560573796     0.867423908
 H        2.276686855     0.462587064    -0.913921656
 H       -5.336365217    28.747989903    11.298923744
 H       -5.639944094    27.031803195    10.929776338
 H       -6.061655399    28.291103753     9.737115789
 H       -2.503900702    28.058617449    11.926972157
 C       -2.705470092    25.914377254    11.637219650
 C       -0.915149283    27.342039644    10.631131780
 H       -2.012827002    29.412474428     8.678580643
 C       -3.936399678    30.046673201     7.901663315
 C       -3.009190832    30.658396546    10.148800119
 H       -3.340858395    16.709948571    -0.075034645
 C       -1.715167417    17.740596474     0.927048942
 C       -3.816605572    16.951128096     2.035750876
 H       -2.203147587    19.980570287    -1.054553206
 C       -3.168030687    18.764189699    -2.573311077
 C       -3.884153405    21.068721466    -1.892575181
 H       -3.614271724    14.500111391     0.927002302
 C       -3.235232161    12.890010199     2.340535626
 C       -1.591734660    13.753402226     0.664209806
 H       -2.470203733    13.277531242    -2.209455200
 C       -4.168854904    12.429825394    -3.262627423
 C       -4.108819370    14.702832777    -2.214205789
 H       -0.158523956    -1.933183486    -1.518328052
 C       -2.157551140    -1.083584827    -1.573490008
 C       -0.189789197    -0.222036717    -2.856739492
 H       -1.773812540    -0.923878867     1.443078473
 C       -0.180260733    -2.384024143     1.616488565
 C       -0.285573134    -0.204646614     2.849343666
 H       -3.714941945    25.831518932    12.060055356
 H       -2.010245624    25.661725902    12.450692694
 H       -2.595307406    25.122889312    10.881936951
 H       -0.581647253    28.329253508    10.287286438
 H       -0.703149170    26.616621851     9.833064067
 H       -0.258125699    27.072591694    11.471050353
 H       -3.976937199    29.334399672     7.065076152
 H       -3.530244850    30.981266839     7.489178076
 H       -4.970258553    30.264402245     8.200731065
 H       -2.344743808    30.413353838    10.987471681
 H       -3.997227891    30.898081768    10.563638420
 H       -2.623914371    31.592531599     9.714615042
 H       -1.196698178    18.051537491     0.011285475
 H       -1.226072776    16.811276275     1.255118206
 H       -1.501901479    18.488207369     1.703798443
 H       -4.874183721    16.665492511     1.948552733
 H       -3.735374007    17.661095421     2.871496894
 H       -3.272198472    16.049193639     2.353326356
 H       -2.659217108    17.825832149    -2.316787429
 H       -2.595153976    19.209124746    -3.399236762
 H       -4.153866034    18.507436370    -2.987648190
 H       -3.940002717    21.844968631    -1.116538702
 H       -4.896047166    20.932121710    -2.298681859
 H       -3.280659142    21.493168360    -2.707528955
 H       -4.278854526    12.716328639     2.636833117
 H       -2.807357396    13.565147615     3.095132624
 H       -2.702679247    11.934097850     2.448738588
 H       -1.402963024    14.279649849    -0.280283592
 H       -0.994233528    12.831258237     0.662089766
 H       -1.167906493    14.386502821     1.457892768
 H       -3.821447194    11.387456497    -3.271698402
 H       -3.857372593    12.861824807    -4.224396997
 H       -5.267613273    12.414484512    -3.273977855
 H       -3.660894861    15.382257061    -1.476854066
 H       -5.202457016    14.778057662    -2.122627315
 H       -3.859076847    15.116367652    -3.202064515
 H       -2.542990276    -1.658211142    -0.721753097
 H       -2.458719892    -1.634957400    -2.476084523
 H       -2.697214848    -0.126343801    -1.605734173
 H        0.899260659    -0.130450331    -2.957197825
 H       -0.621936945     0.781798370    -2.977666796
 H       -0.529370165    -0.808692307    -3.722406868
 H       -0.465348659    -2.981056087     0.740666777
 H       -0.638831307    -2.876919048     2.486124186
 H        0.905727743    -2.479759750     1.747592802
 H       -0.634768482     0.837125253     2.888019763
 H        0.794122513    -0.198197834     3.049872741
 H       -0.754941395    -0.717928711     3.700637346

