187   

Si        0.000000000     0.000000000     0.000000000
 C        1.865065030     0.000000000     0.000000000
 C       -0.676808149     1.712205120     0.000000000
 C        0.110077312     2.797023365    -0.400164643
 C       -0.410933743     4.090869964    -0.397013369
 C       -1.729882606     4.328685953    -0.001802670
 C       -2.518979660     3.240004317     0.392890772
 C       -2.001443648     1.947726219     0.391950169
 C       -2.318507049     5.663529506     0.017936139
 C       -1.676456064     6.790733451    -0.332903323
 C       -2.271174092     8.123128410    -0.310886413
 C       -1.490658653     9.218438221    -0.702332268
 C       -2.017355100    10.508253970    -0.696832881
 C       -3.335568954    10.733692265    -0.285228451
 C       -4.117282618     9.640555537     0.108387184
 C       -3.591028096     8.350475083     0.090338072
Si       -4.073280467    12.418773420    -0.261429781
 C       -5.218725956    12.608027095     1.153055721
 C       -5.073451102    11.954182005     2.313238837
 C       -5.977346497    12.090679419     3.456762390
 C       -5.708649571    11.345341160     4.615755485
 C       -6.530356798    11.436014641     5.726366030
 C       -7.679499531    12.252265079     5.692171813
 C       -7.951098175    12.999149319     4.536748807
 C       -7.093176407    12.929882324     3.443598268
 N       -8.475920967    12.298335251     6.864875847
 C       -9.067866405    11.005432223     7.265892551
 C       -9.408487561    13.430880354     6.968177889
 C      -10.412779166    10.634814712     6.616618490
 C      -10.347116242    10.378991475     5.099128718
 N       -9.783342195     9.081353172     4.695795907
 C      -10.305522649     7.923386033     5.282853801
 C      -11.680456870     7.862186400     5.604345739
 C      -12.213848117     6.724358794     6.185568222
 C      -11.422165092     5.591936720     6.427449133
 C      -10.069159132     5.643917515     6.081632628
 C       -9.512386004     6.781629750     5.512868122
 C       -8.349490067     9.103650016     4.382718063
 C      -12.038971414     4.417438895     7.044257314
 C      -11.385729958     3.280971368     7.322954816
Si      -12.157924383     1.814409960     8.093655901
 C      -13.940524764     1.669250165     7.662553908
 C      -14.390668765     2.112003730     6.413201203
 C      -15.737339030     2.010334068     6.068512205
 C      -16.661703627     1.452239036     6.956190539
 C      -16.207536861     1.001317403     8.202351094
 C      -14.863287002     1.105839961     8.551885207
 C      -18.080105754     1.325667645     6.638006080
 C      -18.642237004     1.717766193     5.482156474
 C      -20.060324542     1.591814279     5.162665571
 C      -20.987148758     1.038759024     6.049906654
 C      -22.334362262     0.937693861     5.703094627
 C      -22.785203952     1.394071800     4.460703450
 C      -21.857673995     1.949613145     3.568792486
 C      -20.512918209     2.044185936     3.915736726
Si      -24.559640729     1.268139405     3.987409211
 C      -25.633205180     0.848791503     5.454186878
 C      -25.094785332     2.932847605     3.234824302
 C      -24.771583000    -0.087520293     2.668146597
 C      -11.251798629     0.262387213     7.469366273
 C      -11.945874494     1.927483779     9.981223563
 C       -2.714887511    13.743846771    -0.142985712
 C       -5.051795700    12.685279062    -1.870125501
 C       -0.623381953    -0.914694486    -1.548306108
 C       -0.651908908    -0.912923021     1.538379368
 H        1.148401678     2.673100859    -0.719994293
 H        0.223373810     4.918573935    -0.708894920
 H       -3.549510874     3.403179682     0.702873153
 H       -2.665104483     1.138197723     0.708659820
 H       -3.360991003     5.697526378     0.348731800
 H       -0.634870171     6.758643769    -0.664891277
 H       -0.460984124     9.063143276    -1.018527031
 H       -1.363221123    11.322421131    -1.020132451
 H       -5.155725870     9.757533078     0.437900808
 H       -4.220452210     7.516592020     0.396093848
 H       -6.041576067    13.320299946     0.993872044
 H       -4.252744874    11.244716246     2.495460981
 H       -4.830676305    10.698397825     4.649651687
 H       -6.287299198    10.889981218     6.636013665
 H       -8.824431867    13.642170009     4.485729256
 H       -7.312611788    13.530682321     2.560230125
 H       -9.848218501    13.439516469     7.980927976
 H      -10.227584990    13.418047755     6.232575909
 H       -8.843661051    14.373402133     6.851121861
 H       -8.088346630    10.045105638     3.863737659
 H       -8.115678336     8.280396935     3.682740119
 H       -7.701761229     9.015837034     5.270357297
 H      -12.326802257     8.708692250     5.393834249
 H      -13.273693807     6.705220738     6.444004717
 H       -9.431177298     4.776710081     6.258527504
 H       -8.456373774     6.781131803     5.264623090
 H      -13.109642568     4.552959289     7.255160790
 H      -10.311652930     3.173529115     7.109920613
 H      -13.711817319     2.552268102     5.674378301
 H      -16.063686217     2.368738224     5.093837075
 H      -16.910567162     0.562690212     8.907594194
 H      -14.567853840     0.736116229     9.537378478
 H      -18.687736613     0.873622552     7.427237324
 H      -18.033949095     2.169145235     4.692653387
 H      -20.662601703     0.679209308     7.024650203
 H      -23.011616177     0.495048687     6.438665355
 H      -22.152488897     2.323501599     2.584189852
 H      -19.807321241     2.476917211     3.208933311
 H       -8.330099573    10.193134651     7.079572906
 H       -9.200479220    11.052073831     8.373993089
 H      -10.807793246     9.731225832     7.128515979
 H      -11.159259753    11.426690459     6.814712589
 H      -11.377374958    10.438351702     4.671341151
 H       -9.770433149    11.190707966     4.599264067
 H        2.263027795    -1.029138016     0.053916374
 H        2.259988740     0.554821389     0.870615006
 H        2.275945084     0.467678167    -0.911735597
 H      -26.700816824     0.822659610     5.171796409
 H      -25.520652265     1.601513221     6.255559653
 H      -25.377698524    -0.137615732     5.879369270
 H      -24.436340614     3.089198227     2.331266688
 C      -26.558429846     2.949701889     2.759329568
 C      -24.865384960     4.114312820     4.194736516
 H      -25.880865502    -0.148151072     2.470327852
 C      -24.067788469     0.230055858     1.336649434
 C      -24.297945396    -1.467965363     3.158888803
 H      -10.170712055     0.392645035     7.763912831
 C      -11.768713522    -1.038217438     8.108488633
 C      -11.317132810     0.127437011     5.937358319
 H      -12.379807973     0.975565321    10.403232428
 C      -10.473364792     2.013198546    10.421298294
 C      -12.717006694     3.115059657    10.584922880
 H       -2.059987271    13.600922063    -1.050783221
 C       -3.264695134    15.181076427    -0.177104837
 C       -1.839950065    13.574773842     1.112074225
 H       -5.476341458    13.728706396    -1.808268584
 C       -4.174841525    12.599006760    -3.131212356
 C       -6.225740085    11.699335843    -2.008632782
 H       -0.151492206    -1.938801012    -1.510369508
 C       -2.151859928    -1.094329060    -1.577340199
 C       -0.181402761    -0.233345287    -2.856298759
 H       -1.776546831    -0.920291543     1.441146922
 C       -0.179124905    -2.374706028     1.630836904
 C       -0.296914073    -0.187335917     2.848894056
 H      -26.782520083     2.175420024     2.014290266
 H      -26.785698246     3.912641694     2.279126976
 H      -27.277470673     2.840463406     3.581968748
 H      -23.824036687     4.199286182     4.537209344
 H      -25.504425462     4.072898925     5.086695120
 H      -25.100389369     5.061852440     3.689363178
 H      -24.413242153     1.162327131     0.872367638
 H      -24.268335016    -0.567871390     0.606775990
 H      -22.974421344     0.285694644     1.434656798
 H      -24.813914435    -1.809880908     4.065239948
 H      -23.217118331    -1.502347388     3.358289748
 H      -24.492860416    -2.228652988     2.389405367
 H      -11.664342612    -1.058366499     9.200711073
 H      -11.196097329    -1.897172273     7.729774244
 H      -12.821875337    -1.243832505     7.868807824
 H      -10.910341821     0.998093115     5.404846282
 H      -12.338792858    -0.040237704     5.566870895
 H      -10.725912248    -0.739020512     5.609234124
 H       -9.870587154     1.156050169    10.095463824
 H      -10.409948324     2.032905827    11.518795268
 H       -9.975233858     2.927462715    10.069102698
 H      -13.793378416     3.094367270    10.364739932
 H      -12.330959839     4.088744934    10.249615794
 H      -12.626141369     3.107517001    11.680024303
 H       -3.836028962    15.408234094    -1.086114461
 H       -2.433879680    15.901205222    -0.150273420
 H       -3.901060544    15.416235878     0.687453758
 H       -1.364623464    12.586828105     1.185338224
 H       -2.396424901    13.742069859     2.045828205
 H       -1.022706976    14.309781045     1.104674909
 H       -3.363318061    13.337635093    -3.149901444
 H       -4.783856537    12.790025600    -4.026799601
 H       -3.726164457    11.605278116    -3.273632592
 H       -6.932464993    11.739822836    -1.168692861
 H       -5.896416203    10.655577818    -2.115981658
 H       -6.807581983    11.930721409    -2.912236496
 H       -2.539961681    -1.663409397    -0.723122104
 H       -2.447191450    -1.653649314    -2.477074331
 H       -2.693745752    -0.138814635    -1.620457297
 H        0.907793068    -0.139558355    -2.953193861
 H       -0.615191571     0.769009618    -2.983256552
 H       -0.516428911    -0.824527626    -3.720695666
 H       -0.458722035    -2.978311764     0.757719784
 H       -0.639739197    -2.863432215     2.501768255
 H        0.906612841    -2.466104532     1.767022371
 H       -0.650866185     0.853076164     2.878977790
 H        0.781832066    -0.175232034     3.053942095
 H       -0.768006183    -0.696761521     3.701575857

