187   

Si        0.000000000     0.000000000     0.000000000
 C        1.864867923     0.000000000     0.000000000
 C       -0.677603377     1.711869084     0.000000000
 C        0.045023184     2.758780831    -0.582602531
 C       -0.464478894     4.056584158    -0.584756143
 C       -1.720946564     4.331944892    -0.038055580
 C       -2.450931144     3.279544716     0.529330501
 C       -1.936915289     1.985599248     0.549037160
 C       -2.292332219     5.674434123    -0.019156603
 C       -1.686177927     6.766740284    -0.514103141
 C       -2.250502632     8.111582503    -0.499012516
 C       -3.505498741     8.399283574     0.044658095
 C       -4.004164175     9.701738643     0.036463330
 C       -3.256081513    10.744777747    -0.518639134
 C       -1.997076388    10.459112916    -1.063579858
 C       -1.501290577     9.158753223    -1.051617365
Si       -3.887019528    12.471846510    -0.543989509
 C       -3.167213532    13.443177867    -1.912460534
 C       -2.767858102    12.956237634    -3.095346536
 C       -2.196076961    13.782473172    -4.159827071
 C       -1.807583393    13.178892115    -5.364179157
 C       -1.262783773    13.927749262    -6.394282199
 C       -1.018641385    15.307312292    -6.231816024
 C       -1.400809933    15.911742544    -5.019235108
 C       -2.001050935    15.158825461    -4.018164191
 N       -0.464708914    16.062743321    -7.282762075
 C        0.433394720    15.373722543    -8.223080177
 C       -0.008240592    17.424101293    -6.955275099
 C        1.764895304    14.919739487    -7.593959380
 C        2.603137548    14.101061829    -8.596315344
 N        2.787525973    12.680613758    -8.225472212
 C        1.586518315    11.964660529    -7.999854645
 C        0.556411075    12.064135843    -8.957766288
 C       -0.634219276    11.379982592    -8.775430001
 C       -0.806489364    10.504974677    -7.692806969
 C        0.230591331    10.378143867    -6.766033145
 C        1.410297984    11.100072097    -6.907147498
 C        3.850496756    12.503251609    -7.220451871
 C       -2.086064052     9.809592805    -7.551130353
 C       -2.375101293     8.951290886    -6.564688466
Si       -3.973295064     8.082614552    -6.387541001
 C       -3.754255669     6.276676013    -6.140139403
 C       -2.618675782     5.631327572    -6.641385858
 C       -2.445475830     4.260056539    -6.457368149
 C       -3.414157349     3.500971307    -5.794931923
 C       -4.555045606     4.148492240    -5.302368221
 C       -4.722780716     5.520806734    -5.468246408
 C       -3.276223492     2.064294781    -5.579216750
 C       -2.235447455     1.324885455    -5.998423907
 C       -2.097699794    -0.111216260    -5.782723412
 C       -3.057517326    -0.867467969    -5.104697221
 C       -2.885547320    -2.239370309    -4.920717177
 C       -1.745702129    -2.886038889    -5.409955120
 C       -0.781953231    -2.129988529    -6.089812042
 C       -0.957290014    -0.761058908    -6.273940936
Si       -1.526812581    -4.697487648    -5.162580530
 C       -3.171103091    -5.575995718    -5.130516547
 C       -0.434744202    -5.403687427    -6.552290229
 C       -0.621043256    -4.968621565    -3.508243830
 C       -4.823291403     8.855685334    -4.868692116
 C       -5.083353268     8.359256439    -7.906486036
 C       -5.786123894    12.510015691    -0.611756215
 C       -3.348878038    13.308371806     1.082853647
 C       -0.638125157    -0.862054196    -1.569668204
 C       -0.662618076    -0.963719536     1.500839616
 H        1.025652438     2.601822247    -1.040365300
 H        0.123755259     4.855992057    -1.031648298
 H       -3.431617549     3.471776130     0.959509608
 H       -2.550906227     1.205954224     1.007481388
 H       -3.283120900     5.745089368     0.438170780
 H       -0.696652600     6.691881066    -0.974992465
 H       -4.106377522     7.603802166     0.480930118
 H       -4.991263778     9.866179149     0.476338525
 H       -1.365762041    11.237678347    -1.506598107
 H       -0.521084361     8.955592743    -1.479190275
 H       -3.092791533    14.520539169    -1.692264334
 H       -2.839003513    11.891174858    -3.359081476
 H       -1.947067008    12.103829312    -5.507602049
 H       -1.005049472    13.429246155    -7.327087966
 H       -1.243220090    16.971382296    -4.851373740
 H       -2.305689467    15.659371908    -3.098015650
 H        0.423456556    17.903595570    -7.849306411
 H        0.742071666    17.453523482    -6.148813187
 H       -0.879866086    18.034859870    -6.656170836
 H        4.767622727    13.007751430    -7.569778527
 H        4.094596709    11.429538904    -7.132136777
 H        3.594149459    12.896652736    -6.223854427
 H        0.696373820    12.677918256    -9.843593881
 H       -1.436161380    11.501962779    -9.504492503
 H        0.117652926     9.711349226    -5.909320706
 H        2.181607522    10.994377915    -6.150640753
 H       -2.798993458    10.061427237    -8.348038641
 H       -1.646139457     8.717320534    -5.772004941
 H       -1.832691723     6.173307710    -7.176731258
 H       -1.546114014     3.782712721    -6.841506877
 H       -5.317737954     3.576164434    -4.777965906
 H       -5.626759451     5.974306672    -5.052516145
 H       -4.102261105     1.602805184    -5.029976965
 H       -1.408558791     1.786945118    -6.545299236
 H       -3.953917099    -0.388011785    -4.714678880
 H       -3.675241524    -2.779291195    -4.390439240
 H        0.128640990    -2.580362621    -6.494353317
 H       -0.198744617    -0.191828982    -6.808126238
 H       -0.111946045    14.498550069    -8.649657474
 H        0.624736451    16.056464199    -9.081479626
 H        2.334334816    15.795475251    -7.238670313
 H        1.554698529    14.320805538    -6.684416997
 H        2.147928954    14.126081951    -9.612420778
 H        3.609104852    14.560196671    -8.718613627
 H        2.263436476    -1.029513015     0.031029450
 H        2.259372118     0.536748510     0.881578363
 H        2.274875172     0.488805096    -0.900989150
 H       -3.038606929    -6.665666776    -5.007820797
 H       -3.722756717    -5.412368570    -6.074463903
 H       -3.811711521    -5.223259267    -4.303671991
 H        0.552099060    -4.860286640    -6.480627856
 C       -0.150686374    -6.909504788    -6.404541208
 C       -1.019089143    -5.143438798    -7.952714598
 H       -0.382481920    -6.070227982    -3.466133127
 C        0.701575829    -4.186647079    -3.413318533
 C       -1.487117099    -4.623136827    -2.283698525
 H       -5.837289782     8.369060276    -4.791774457
 C       -4.060097944     8.578642158    -3.563837175
 C       -5.027568254    10.372291243    -5.024795331
 H       -5.126520427     9.475759850    -8.065072633
 C       -4.507233511     7.714334619    -9.180280937
 C       -6.523115415     7.853637393    -7.704838809
 H       -6.136741366    12.002767289     0.333789796
 C       -6.359489241    13.938922325    -0.624260760
 C       -6.364046414    11.735221451    -1.807747218
 H       -3.758817378    14.358148157     1.044206436
 C       -3.915804356    12.618334101     2.335344083
 C       -1.817608160    13.396643251     1.211076484
 H       -0.275412384    -1.929460562    -1.516485674
 C       -2.175225764    -0.876650540    -1.647859055
 C       -0.079763206    -0.233251465    -2.856726003
 H       -1.787748933    -0.945882114     1.410364484
 C       -0.220391893    -2.438690683     1.524305756
 C       -0.286415747    -0.306061188     2.840824767
 H        0.343798170    -7.168790793    -5.459621798
 H        0.525210312    -7.243707665    -7.205248755
 H       -1.054769853    -7.526845509    -6.489541793
 H       -1.209949949    -4.080070911    -8.155651072
 H       -1.957038214    -5.685826157    -8.132508155
 H       -0.314047018    -5.482202113    -8.725135078
 H        1.413322971    -4.432296137    -4.211106279
 H        1.209600454    -4.418968854    -2.466261598
 H        0.553458632    -3.095587949    -3.422558420
 H       -2.407901588    -5.216379058    -2.221368758
 H       -1.769798944    -3.560252141    -2.245199961
 H       -0.928117321    -4.825757174    -1.358696486
 H       -3.891574771     7.510279504    -3.369128516
 H       -4.628917554     8.956200016    -2.700460561
 H       -3.082282679     9.079388460    -3.516762412
 H       -5.638408508    10.645772312    -5.894155602
 H       -4.081813015    10.930058087    -5.094325717
 H       -5.551169422    10.771893231    -4.144195020
 H       -3.491305701     8.052801136    -9.424545139
 H       -5.133559951     7.965985543   -10.047549483
 H       -4.483343119     6.616178063    -9.127360843
 H       -7.044703093     8.345917442    -6.873994532
 H       -6.577177189     6.768188075    -7.540464045
 H       -7.122001712     8.055825655    -8.604583125
 H       -6.063300957    14.536382358     0.247174563
 H       -7.458285163    13.902958736    -0.610406740
 H       -6.082412433    14.501865781    -1.526902142
 H       -6.029030064    10.689189043    -1.852658479
 H       -6.123876064    12.209139247    -2.771306882
 H       -7.460818948    11.704037283    -1.744766922
 H       -5.012533276    12.607281413     2.368295882
 H       -3.587544497    13.151219046     3.239572001
 H       -3.566399582    11.581875837     2.448243153
 H       -1.339349571    13.925520844     0.375199216
 H       -1.339396098    12.410046652     1.295440980
 H       -1.546045880    13.948629848     2.121826090
 H       -2.651638602    -1.405253481    -0.813931255
 H       -2.495706278    -1.390903573    -2.567604453
 H       -2.608958160     0.132719998    -1.702928447
 H        1.014442663    -0.253057489    -2.917562888
 H       -0.408982722     0.805484815    -3.005288345
 H       -0.447131025    -0.791788526    -3.733788177
 H       -0.522442495    -2.996528574     0.628067728
 H       -0.682482430    -2.955237206     2.377749639
 H        0.864354651    -2.558560174     1.643745394
 H       -0.616013393     0.739630844     2.919459792
 H        0.793318626    -0.327028094     3.039907619
 H       -0.764270013    -0.842539795     3.672590811

