187   

Si        0.000000000     0.000000000     0.000000000
 C        1.865226109     0.000000000     0.000000000
 C       -0.680215432     1.710298285     0.000000000
 C        0.118818149     2.802496065     0.352993138
 C       -0.405096981     4.095048114     0.350175689
 C       -1.738333011     4.325215524     0.000722222
 C       -2.538845119     3.229237347    -0.348165665
 C       -2.018671506     1.937889945    -0.347212738
 C       -2.328266480     5.659769660    -0.015974818
 C       -1.670772561     6.789680209     0.295488732
 C       -2.257589483     8.125470215     0.279807053
 C       -3.590361903     8.359666658    -0.069065127
 C       -4.109627317     9.653985685    -0.070376314
 C       -3.309010418    10.741613212     0.292594119
 C       -1.972893227    10.509254413     0.645678966
 C       -1.454237101     9.217491560     0.634463481
Si       -3.967540520    12.457206192     0.299611083
 C       -3.213533095    13.478152787     1.616915373
 C       -2.773019660    12.990842581     2.784582115
 C       -2.169172032    13.802808140     3.841625684
 C       -1.746316178    13.174883005     5.021308149
 C       -1.168453182    13.897856959     6.052717663
 C       -1.025029909    15.298734429     5.952609914
 C       -1.423256157    15.923615484     4.755782488
 C       -1.941904325    15.174950055     3.707471998
 N       -0.436474022    16.028262933     7.005094166
 C       -0.634956156    15.499947394     8.371670452
 C       -0.571575869    17.494522521     6.931659545
 C       -2.090493173    15.181086202     8.764296568
 C       -2.874766966    16.398064679     9.293649571
 N       -4.262963420    16.521768325     8.787034283
 C       -4.281281694    16.930903958     7.410572227
 C       -4.220831875    18.314448570     7.179762737
 C       -4.233359159    18.799361167     5.880301787
 C       -4.256860395    17.921713419     4.786693221
 C       -4.334538080    16.547402870     5.029529422
 C       -4.387867962    16.051902898     6.328417743
 C       -5.090542247    15.336356319     9.073745038
 C       -4.269354503    18.482553854     3.432605852
 C       -4.291761393    17.743884996     2.316136794
Si       -4.308086239    18.396000144     0.607558072
 C       -5.666005841    17.566049993    -0.310730622
 C       -6.873783633    17.290499439     0.340294173
 C       -7.914889302    16.661519380    -0.340476069
 C       -7.771538676    16.291774762    -1.681274636
 C       -6.561753144    16.570354754    -2.330239209
 C       -5.521125477    17.203106974    -1.654780843
 C       -8.833437773    15.632052938    -2.432788770
 C      -10.037725820    15.309189151    -1.931711790
 C      -11.099398542    14.649313666    -2.684002173
 C      -10.957251344    14.284481355    -4.025300233
 C      -11.998211948    13.654984405    -4.707213359
 C      -13.208566167    13.381450146    -4.062167200
 C      -13.353383218    13.745855549    -2.716737477
 C      -12.310200662    14.368566930    -2.036938228
Si      -14.589590196    12.550909333    -4.952414619
 C      -14.357176214    12.629751667    -6.801399232
 C      -14.670088620    10.726326650    -4.416308489
 C      -16.223299592    13.395144086    -4.460365786
 C       -4.649395422    20.269134941     0.596975696
 C       -2.605542541    18.122116581    -0.191764410
 C       -3.664557155    13.291767374    -1.380061795
 C       -5.846640121    12.429983922     0.610894635
 C       -0.652399564    -0.908643478    -1.540777712
 C       -0.618845338    -0.921459855     1.546310276
 H        1.168908477     2.685645451     0.634786000
 H        0.238994983     4.928333482     0.625388496
 H       -3.580070533     3.386188916    -0.623287422
 H       -2.691218708     1.122727079    -0.628324874
 H       -3.381588092     5.691227107    -0.308973803
 H       -0.616988735     6.757171589     0.588095537
 H       -4.235854931     7.529067668    -0.347743250
 H       -5.157227581     9.775354143    -0.359954871
 H       -1.300402657    11.323480334     0.936884646
 H       -0.413145524     9.056678659     0.907903511
 H       -3.170861716    14.554956326     1.392349907
 H       -2.822006488    11.922298006     3.037207628
 H       -1.870126420    12.096987383     5.132997374
 H       -0.818711078    13.374034448     6.937116411
 H       -1.320543285    16.997410716     4.626960756
 H       -2.198882145    15.683972297     2.776180311
 H       -0.108819215    17.963403384     7.814489673
 H       -1.620170577    17.835663068     6.861989476
 H       -0.019102731    17.862955953     6.048036374
 H       -5.170016260    15.225436456    10.168925315
 H       -4.712345784    14.391387871     8.655917654
 H       -6.109457037    15.507207152     8.683925910
 H       -4.184851048    18.994762068     8.029000697
 H       -4.213303369    19.875345422     5.711567702
 H       -4.383873658    15.842605784     4.195533815
 H       -4.476575985    14.980314792     6.489679946
 H       -4.253613820    19.579731153     3.421563028
 H       -4.307015228    16.640367176     2.363854062
 H       -7.039446830    17.550205283     1.391466009
 H       -8.846488486    16.458979731     0.184709715
 H       -6.430661382    16.290670441    -3.373668013
 H       -4.601129602    17.396877130    -2.212936934
 H       -8.584433367    15.404165825    -3.473311678
 H      -10.288005694    15.537173830    -0.891339665
 H      -10.027070041    14.490091719    -4.551966850
 H      -11.827816988    13.393428419    -5.755289750
 H      -14.276266371    13.556664512    -2.161198557
 H      -12.440916765    14.642003958    -0.991515249
 H       -0.018641308    14.571600309     8.449531178
 H       -0.186541562    16.212894376     9.097598987
 H       -2.619238802    14.749329357     7.888773986
 H       -2.093487254    14.378545056     9.524318362
 H       -2.938975391    16.359582143    10.403762973
 H       -2.343417747    17.344067988     9.048129913
 H        2.262941692    -1.029417170    -0.048590621
 H        2.275795860     0.472395264     0.909485277
 H        2.260334985     0.550174976    -0.873430210
 H      -15.214970468    12.176839935    -7.330009982
 H      -13.447624215    12.093702130    -7.124099057
 H      -14.271305096    13.676840479    -7.144745866
 H      -15.500465281    10.264839260    -5.024983892
 C      -13.369835654     9.961958414    -4.725534297
 C      -15.010018603    10.539221693    -2.926816359
 H      -16.321003387    13.254259289    -3.344570368
 C      -16.214389568    14.907930797    -4.745077381
 C      -17.462150995    12.767448386    -5.123583606
 H       -3.861323459    20.733886552     1.256982828
 C       -4.528605676    20.896870436    -0.802924936
 C       -6.030478628    20.623061796     1.177545977
 H       -2.673640966    18.588837866    -1.217476010
 C       -1.472687785    18.827737869     0.577183855
 C       -2.229321733    16.642988779    -0.369322038
 H       -4.038247599    14.352817073    -1.265886770
 C       -2.172045629    13.341598248    -1.751099454
 C       -4.447708812    12.642189744    -2.533804281
 H       -6.296176743    11.840425160    -0.239084387
 C       -6.213251234    11.728104504     1.930780688
 C       -6.475354257    13.832161197     0.602111105
 H       -1.776993035    -0.915883231    -1.442698864
 C       -0.299188786    -0.179330968    -2.849632558
 C       -0.179675490    -2.370143092    -1.637606234
 H       -0.132544325    -1.938935508     1.511042115
 C       -0.191430067    -0.233183956     2.855598098
 C       -2.144686500    -1.122874895     1.570275961
 H      -13.097542276     9.976042688    -5.788709975
 H      -13.481209969     8.902937453    -4.451562752
 H      -12.507768512    10.337639420    -4.155680883
 H      -15.975324015    10.976448909    -2.641825133
 H      -14.241501151    10.952393700    -2.258197701
 H      -15.077545252     9.467494438    -2.689058950
 H      -15.384398809    15.437021964    -4.255144549
 H      -17.138117007    15.368410629    -4.366500516
 H      -16.169011856    15.142924085    -5.816795580
 H      -17.574486171    11.696569378    -4.910324724
 H      -17.474660695    12.894460225    -6.214234671
 H      -18.374978505    13.252432134    -4.747848515
 H       -3.530265708    20.788740978    -1.245435569
 H       -4.722432458    21.978197554    -0.748015369
 H       -5.258572842    20.493121267    -1.518788961
 H       -6.191512041    20.242302546     2.195232234
 H       -6.859670754    20.258397301     0.553936673
 H       -6.147321653    21.714532986     1.234617845
 H       -1.609930970    19.912957525     0.661277119
 H       -0.516411707    18.682315325     0.054353987
 H       -1.330933447    18.429690892     1.592576651
 H       -2.985159061    16.061714602    -0.916285033
 H       -2.037455073    16.133924657     0.586015843
 H       -1.300179457    16.556768209    -0.951144036
 H       -1.550092651    13.841491121    -0.995852369
 H       -2.033533362    13.900388116    -2.687197382
 H       -1.743294154    12.344138965    -1.924139313
 H       -5.536363404    12.676054877    -2.391428305
 H       -4.164782104    11.595326552    -2.710201484
 H       -4.246120410    13.176618997    -3.473217586
 H       -5.846873089    10.694732691     1.993584819
 H       -7.305761216    11.673914047     2.036902791
 H       -5.842357263    12.265368442     2.815901789
 H       -6.319633201    14.377630012    -0.340373802
 H       -6.113300020    14.473794766     1.417692633
 H       -7.565053840    13.758336112     0.727459976
 H       -0.655927974     0.860335012    -2.876836251
 H       -0.769337692    -0.687640559    -3.703422419
 H        0.779387242    -0.163841297    -3.054967844
 H       -0.460245420    -2.976577700    -0.766794219
 H        0.906200626    -2.461086015    -1.772888866
 H       -0.639203554    -2.855855809    -2.510728044
 H        0.895895117    -0.122573662     2.955935156
 H       -0.520354662    -0.829124607     3.718994383
 H       -0.640534141     0.762705709     2.980515071
 H       -2.523059787    -1.689090695     0.709866314
 H       -2.699494139    -0.175250894     1.621180701
 H       -2.433961646    -1.694774405     2.463981585

