187   

Si        0.000000000     0.000000000     0.000000000
 C        1.865053699     0.000000000     0.000000000
 C       -0.676165390     1.712393925     0.000000000
 C        0.080351526     2.779622398     0.495586438
 C       -0.434797785     4.075635788     0.494156700
 C       -1.717717314     4.333897800     0.004185722
 C       -2.476812021     3.262828052    -0.485635785
 C       -1.965519531     1.967884405    -0.485067770
 C       -2.298611195     5.672127898    -0.017605512
 C       -1.682053003     6.783073904     0.420188743
 C       -2.267349893     8.119618009     0.396294533
 C       -1.514763708     9.195207503     0.884734349
 C       -2.033392420    10.488392625     0.881397717
 C       -3.312779384    10.737657546     0.373656661
 C       -4.065973002     9.664293521    -0.118490109
 C       -3.549238853     8.370497272    -0.102375383
Si       -4.041041827    12.426125489     0.347326608
 C       -5.021837148    12.689280880    -1.172326353
 C       -4.751364356    12.090290945    -2.339734272
 C       -5.522366446    12.286395202    -3.566765065
 C       -5.130709924    11.596397521    -4.722691711
 C       -5.822304620    11.742442417    -5.913343541
 C       -6.970985602    12.561208000    -5.976116919
 C       -7.358531416    13.260168518    -4.818430274
 C       -6.623589577    13.142406961    -3.645769486
 N       -7.659553199    12.695869986    -7.197260311
 C       -7.719159637    11.495933133    -8.057473309
 C       -8.919714869    13.456138353    -7.162567389
 C       -8.145977355    10.192942850    -7.355725453
 C       -9.673943651    10.029977079    -7.240717595
 N      -10.140561976     9.514371658    -5.933360034
 C      -10.046766818    10.489945197    -4.893172080
 C      -10.982675711    11.539294249    -4.939335433
 C      -10.961813602    12.527579573    -3.968919412
 C      -10.026534952    12.490757097    -2.923096085
 C       -9.115870120    11.432799196    -2.871209900
 C       -9.130592028    10.429719829    -3.836645476
 C       -9.575994415     8.194150090    -5.604169798
 C      -10.060276850    13.567400664    -1.931191755
 C       -9.234915223    13.668147524    -0.880695475
Si       -9.334996379    15.045487824     0.322450549
 C      -11.055279072    15.677081716     0.482274999
 C      -12.132595474    14.792394581     0.354068244
 C      -13.443872437    15.249597592     0.471573468
 C      -13.709490598    16.596868474     0.733174242
 C      -12.629993982    17.478999955     0.870651877
 C      -11.318547124    17.025389882     0.749614172
 C      -15.065419633    17.119872914     0.864201502
 C      -16.183046330    16.381859589     0.754505726
 C      -17.539693527    16.902950746     0.885194537
 C      -17.808792441    18.249577685     1.142622686
 C      -19.122105911    18.704728951     1.259957910
 C      -20.196623352    17.821896936     1.114517509
 C      -19.929301610    16.470729940     0.854951792
 C      -18.617548578    16.018341339     0.744410633
Si      -21.936027872    18.405390292     1.266203404
 C      -22.038807396    20.267965520     1.262464680
 C      -22.931774798    17.688189558    -0.188936375
 C      -22.685808500    17.757094893     2.891265755
 C       -8.730970975    14.420049043     2.010720961
 C       -8.195858389    16.453330441    -0.264833795
 C       -5.219035248    12.604906344     1.830987448
 C       -2.689408870    13.756155506     0.468930754
 C       -0.647126419    -0.920758025    -1.535898477
 C       -0.628139532    -0.909185640     1.549614849
 H        1.090378668     2.639875269     0.890820819
 H        0.175677318     4.889294896     0.881677964
 H       -3.479007052     3.441698203    -0.870420680
 H       -2.605537506     1.172890122    -0.877586025
 H       -3.311191853     5.723666305    -0.428669448
 H       -0.669930693     6.733177698     0.831981088
 H       -0.513990058     9.021868795     1.275600379
 H       -1.402633937    11.286338020     1.282259640
 H       -5.072388740     9.801657145    -0.530165003
 H       -4.154958136     7.552260518    -0.487247041
 H       -5.860449257    13.394613019    -1.070263952
 H       -3.916680554    11.385187163    -2.464877940
 H       -4.261322500    10.938326532    -4.690217918
 H       -5.470961055    11.226426164    -6.801780299
 H       -8.239417478    13.896088179    -4.818957661
 H       -6.940708711    13.711745641    -2.768862154
 H       -9.355386031    13.509977061    -8.173164001
 H       -8.703418073    14.495295176    -6.851934306
 H       -9.673097084    13.032341201    -6.475752773
 H       -9.873285285     7.480473099    -6.391955384
 H      -10.017924223     7.839298200    -4.656286887
 H       -8.479488694     8.170563673    -5.510940052
 H      -11.727299892    11.556692145    -5.732625615
 H      -11.690973161    13.337132558    -4.014376022
 H       -8.376360192    11.384235825    -2.069460018
 H       -8.406852300     9.621609691    -3.776191830
 H      -10.852848700    14.304210736    -2.132665650
 H       -8.442572295    12.927702264    -0.694968015
 H      -11.986615125    13.724795922     0.155517467
 H      -14.264177395    14.542570338     0.360569811
 H      -12.814533495    18.531738244     1.075858402
 H      -10.518375300    17.760904423     0.867938147
 H      -15.124446799    18.193328187     1.066070273
 H      -16.123245323    15.307999280     0.553480537
 H      -16.990358407    18.958184207     1.255940953
 H      -19.269606556    19.768871825     1.463971352
 H      -20.729101709    15.735088711     0.730909784
 H      -18.429951176    14.965001438     0.544505086
 H       -8.386401884    11.705405886    -8.921639433
 H       -6.699480529    11.363433403    -8.494471415
 H       -7.717180758     9.330006152    -7.896563816
 H       -7.690438707    10.152554941    -6.343336398
 H      -10.186536128    10.998811340    -7.429919823
 H      -10.046559037     9.328570104    -8.020140491
 H        2.262896612    -1.029471860    -0.046726896
 H        2.277052813     0.474767579     0.907482180
 H        2.258997547     0.548858179    -0.874917355
 H      -23.088464492    20.608511983     1.313891155
 H      -21.599259809    20.687301085     0.339249600
 H      -21.503815690    20.709126158     2.121688839
 H      -22.856192615    16.565991277    -0.091618495
 C      -24.423738142    18.064430671    -0.157040770
 C      -22.344017759    18.082147189    -1.556153963
 H      -23.720102638    18.204748185     2.948245713
 C      -22.827226954    16.225292313     2.940488229
 C      -21.896601171    18.219008936     4.130108071
 H       -7.690413842    14.013344377     1.839746432
 C       -8.638919835    15.528835658     3.072592820
 C       -9.605650150    13.276117710     2.554067884
 H       -8.311081150    17.275964037     0.498940663
 C       -6.707173956    16.073707015    -0.326304425
 C       -8.622452361    17.007607693    -1.636253374
 H       -5.659997521    13.641469599     1.751829200
 C       -6.370862378    11.585042748     1.784032554
 C       -4.508331953    12.494853025     3.190307448
 H       -2.116269282    13.533154738     1.414915803
 C       -1.705570907    13.695568173    -0.713303492
 C       -3.246278918    15.186888383     0.580438938
 H       -1.772103224    -0.927658609    -1.443002842
 C       -0.286494963    -0.203602375    -2.849505123
 C       -0.174839741    -2.383417616    -1.618281432
 H       -0.158490870    -1.934390355     1.516762453
 C       -0.188560091    -0.224225589     2.856532442
 C       -2.157252198    -1.084270848     1.573552850
 H      -24.932396381    17.748409627     0.762893247
 H      -24.952761116    17.570862316    -0.985301487
 H      -24.596737412    19.141550850    -0.281897784
 H      -21.289977954    17.792785966    -1.674762737
 H      -22.416558863    19.158479119    -1.760819947
 H      -22.893457606    17.576212089    -2.362762147
 H      -23.443729487    15.817585311     2.129503898
 H      -23.316957579    15.923938991     3.878079270
 H      -21.858313105    15.706747544     2.922311654
 H      -21.818221405    19.310384524     4.216302540
 H      -20.877040395    17.808625066     4.164200407
 H      -22.397578309    17.873978900     5.045977283
 H       -7.955061551    16.341667029     2.796655754
 H       -8.257415428    15.114482866     4.017218536
 H       -9.613866524    15.977902866     3.309600793
 H       -9.661302366    12.411121277     1.878772198
 H      -10.635632040    13.591789877     2.774241982
 H       -9.193254347    12.902711003     3.502280354
 H       -6.313288406    15.691005560     0.623985096
 H       -6.103625174    16.959445093    -0.572765199
 H       -6.489844109    15.332002522    -1.108559237
 H       -9.658705650    17.371364872    -1.658142153
 H       -8.513328358    16.272988776    -2.447731295
 H       -7.991975376    17.865183228    -1.910124795
 H       -6.961193318    11.633621863     0.858166094
 H       -7.074374154    11.771337402     2.608955645
 H       -6.027165893    10.547965425     1.905541411
 H       -3.726050986    13.250460278     3.336585832
 H       -4.053342359    11.508209982     3.357501790
 H       -5.231452139    12.639481085     4.006109417
 H       -1.219517872    12.717149060    -0.829619761
 H       -0.896500101    14.425463743    -0.570485402
 H       -2.178904170    13.943753467    -1.674835064
 H       -3.888445163    15.336373077     1.457841221
 H       -3.811610844    15.495288077    -0.310561350
 H       -2.419229144    15.904430820     0.681243246
 H       -0.637909962     0.837403138    -2.887137022
 H       -0.755180554    -0.717218341    -3.700905731
 H        0.793066416    -0.194687800    -3.050701774
 H       -0.461251588    -2.982752581    -0.744413453
 H        0.911750534    -2.476437145    -1.746287015
 H       -0.629528896    -2.875741579    -2.490238210
 H        0.900594077    -0.133386003     2.956667859
 H       -0.528257807    -0.811395799     3.721874439
 H       -0.620107089     0.779766711     2.978403007
 H       -2.543532505    -1.656082260     0.720349167
 H       -2.696520850    -0.126904553     1.609109837
 H       -2.458054058    -1.638384694     2.474634800

