187   

Si        0.000000000     0.000000000     0.000000000
 C        1.863899745     0.000000000     0.000000000
 C       -0.692848357     1.703994014     0.000000000
 C        0.114178953     2.833111284    -0.167168314
 C       -0.444592554     4.112389511    -0.162070111
 C       -1.814887731     4.287783998     0.039000479
 C       -2.622263673     3.153973282     0.204681767
 C       -2.073028435     1.877404268     0.170121804
 C       -2.461101361     5.593184898     0.055978969
 C       -1.852538246     6.779184990    -0.113786038
 C       -2.565610259     8.052942026    -0.084437587
 C       -1.864870198     9.250536037    -0.269217501
 C       -2.527749697    10.478719140    -0.244741567
 C       -3.901484310    10.536039464     0.007388535
 C       -4.602060953     9.338043500     0.205407490
 C       -3.943081067     8.114441596     0.152137578
Si       -4.871972873    12.099374157     0.062229282
 C       -6.205733036    11.919875479     1.305355657
 C       -6.104734207    11.146178479     2.395446427
 C       -7.159236659    10.990825477     3.398503470
 C       -6.930373266    10.148640106     4.498321628
 C       -7.898516829     9.970769662     5.472240487
 C       -9.128410269    10.655826317     5.389138885
 C       -9.361128835    11.493947448     4.287259874
 C       -8.391137999    11.639590117     3.301236434
 N      -10.091426871    10.446814283     6.404398700
 C       -9.613970724    10.578126193     7.790219339
 C      -11.413559596    11.058730673     6.195251008
 C       -9.303750161    12.028617230     8.203990385
 C       -8.657913401    12.076396814     9.601773201
 N       -7.251597623    12.520256846     9.600327518
 C       -6.334640538    11.704883433     8.901390691
 C       -6.420583853    10.302393241     9.023686682
 C       -5.531191115     9.481850527     8.346900011
 C       -4.483855420    10.021607265     7.587786019
 C       -4.382747155    11.412598800     7.493875016
 C       -5.290641836    12.247449584     8.131851014
 C       -7.125537561    13.974604161     9.402046149
 C       -3.563805607     9.122646989     6.886410416
 C       -2.540181248     9.561121431     6.142243563
Si       -1.336652827     8.537343189     5.228590793
 C       -1.999483383     6.930036092     4.638459472
 C       -3.336079942     6.805805522     4.244073350
 C       -3.829385831     5.579816322     3.797275535
 C       -2.993582981     4.463234518     3.717655291
 C       -1.651401798     4.594430297     4.097791564
 C       -1.157201675     5.814688406     4.547148219
 C       -3.446540132     3.156265965     3.259921084
 C       -4.693590196     2.855628103     2.860093191
 C       -5.098535038     1.527883332     2.409312015
 C       -4.206265231     0.453171975     2.358866751
 C       -4.622909489    -0.803483716     1.923618105
 C       -5.943291605    -1.009335222     1.512863832
 C       -6.839339280     0.067395013     1.554391061
 C       -6.420987401     1.319718566     1.997090272
Si       -6.503313209    -2.664232605     0.936607904
 C       -5.214819950    -3.970059074     1.280111933
 C       -8.133915575    -3.085645927     1.820026252
 C       -6.819318760    -2.605670117    -0.939710572
 C       -0.793400451     9.539507654     3.708003117
 C        0.179975586     8.255729506     6.343253889
 C       -3.784752199    13.598793361     0.486679390
 C       -5.662249696    12.385880227    -1.643925342
 C       -0.623607909    -0.953601946    -1.524250283
 C       -0.672852019    -0.866464752     1.558046143
 H        1.194489312     2.755709773    -0.310147563
 H        0.200340874     4.976707468    -0.304658966
 H       -3.695622172     3.268675214     0.358183459
 H       -2.760245704     1.031685458     0.284961151
 H       -3.542996653     5.550900282     0.232223530
 H       -0.777014959     6.845226167    -0.283845617
 H       -0.791897776     9.226175689    -0.446400770
 H       -1.935088547    11.379518292    -0.419020154
 H       -5.680691240     9.317516561     0.401888680
 H       -4.514374214     7.199556022     0.304712559
 H       -7.110058830    12.510719383     1.102510372
 H       -5.203114131    10.557229987     2.626245999
 H       -5.975325002     9.626762489     4.593419833
 H       -7.703946041     9.301789883     6.308603602
 H      -10.293224194    12.040344685     4.190367349
 H       -8.599777749    12.287810375     2.449693654
 H      -12.102160664    10.713322457     6.985291646
 H      -11.826939434    10.707432586     5.232569721
 H      -11.405532152    12.159957049     6.197622674
 H       -7.839273141    14.499417326    10.059345010
 H       -7.305907453    14.299219331     8.364410548
 H       -6.114531084    14.297563320     9.709687716
 H       -7.185260300     9.857620814     9.654172413
 H       -5.636184030     8.399363042     8.428501474
 H       -3.585172117    11.862665908     6.899948586
 H       -5.186318337    13.320816219     8.010652068
 H       -3.798728046     8.059153752     7.015017120
 H       -2.335243287    10.642333726     6.051801354
 H       -4.030613169     7.651683224     4.277223691
 H       -4.874214942     5.501177550     3.503437192
 H       -0.983069877     3.737763100     4.029849656
 H       -0.099568433     5.857913784     4.821465555
 H       -2.664069697     2.387762200     3.249606342
 H       -5.482789090     3.610059366     2.860504002
 H       -3.172212247     0.586157597     2.679640246
 H       -3.882057527    -1.608444993     1.919769109
 H       -7.883601336    -0.036314153     1.247835346
 H       -7.132146968     2.142558130     2.024498696
 H      -10.387932959    10.140400312     8.460078689
 H       -8.703249068     9.945168108     7.911777853
 H       -8.632016883    12.487738132     7.450934139
 H      -10.223827768    12.637082499     8.184406123
 H       -9.232002326    12.761273526    10.266231605
 H       -8.707259815    11.082721646    10.101988913
 H        2.263814340    -1.028215974     0.048253719
 H        2.261976765     0.551269092     0.870852671
 H        2.271232659     0.472025637    -0.911356336
 H       -5.569619442    -4.968313364     0.967553633
 H       -4.983290218    -4.024849230     2.359237439
 H       -4.272424978    -3.768410919     0.741039288
 H       -8.862282218    -2.274049474     1.527740921
 C       -8.734619996    -4.435431572     1.389304997
 C       -7.996612896    -3.063537223     3.353187731
 H       -7.099625367    -3.658573760    -1.232675542
 C       -7.977455992    -1.675685402    -1.342618011
 C       -5.565881833    -2.205106104    -1.739141593
 H       -0.172330565    10.395923335     4.098035588
 C        0.068125534     8.730137503     2.723823904
 C       -1.999414658    10.122415348     2.956041548
 H        0.944689169     7.727137397     5.704349854
 C        0.812513254     9.563793247     6.851912188
 C       -0.141554599     7.357670881     7.551327231
 H       -2.957781585    13.610850267    -0.280989811
 C       -4.540534763    14.937155576     0.390086697
 C       -3.142266932    13.494942246     1.880991115
 H       -6.262810332    13.336523806    -1.554217445
 C       -4.623774651    12.578517239    -2.762851318
 C       -6.623035580    11.251718842    -2.043788298
 H       -0.100229445    -1.952503105    -1.490556123
 C       -2.140975675    -1.212078843    -1.523197230
 C       -0.244075948    -0.260252979    -2.845637810
 H       -1.797295818    -0.861484836     1.443421451
 C       -0.223199298    -2.331070944     1.695419561
 C       -0.327184056    -0.108978284     2.852842769
 H       -8.928453181    -4.500921197     0.310851142
 H       -9.704212346    -4.589675807     1.885173143
 H       -8.107715216    -5.292344762     1.669311351
 H       -7.623259885    -2.105094406     3.741585739
 H       -7.339103474    -3.854728971     3.737008273
 H       -8.978366445    -3.222615313     3.821862971
 H       -8.933181333    -1.938644682    -0.872099990
 H       -8.145398606    -1.734134056    -2.428056044
 H       -7.771587031    -0.618635979    -1.122398664
 H       -4.713677563    -2.878279672    -1.578644602
 H       -5.229577568    -1.180560638    -1.521180844
 H       -5.781927099    -2.235043526    -2.816745692
 H        0.968640704     8.299258371     3.177342407
 H        0.411767473     9.378334888     1.905329540
 H       -0.491749578     7.908710827     2.248608631
 H       -2.655984491    10.745247924     3.577779244
 H       -2.625527670     9.348473656     2.482517524
 H       -1.647140073    10.762224128     2.132565540
 H        1.143382014    10.231047878     6.046169208
 H        1.707406415     9.339849025     7.450249783
 H        0.140955253    10.135785087     7.507496473
 H       -0.548411414     6.376128699     7.271270134
 H       -0.853055490     7.821633074     8.249713279
 H        0.772040217     7.158868147     8.128839884
 H       -4.954867342    15.133559540    -0.606947025
 H       -3.856962342    15.771035311     0.605484856
 H       -5.360615236    15.018138189     1.116941702
 H       -2.499197268    12.611378846     1.996838736
 H       -3.883473749    13.475207797     2.693485106
 H       -2.501683229    14.367710707     2.068575853
 H       -3.953650739    13.431055598    -2.594088616
 H       -5.131680977    12.771827266    -3.718759417
 H       -3.998776727    11.688254976    -2.923849892
 H       -7.432465169    11.090028053    -1.318950732
 H       -6.110551194    10.289668903    -2.189546600
 H       -7.108537570    11.488437209    -3.000994175
 H       -2.491702037    -1.761407215    -0.639838371
 H       -2.417671715    -1.822584112    -2.394794447
 H       -2.731027607    -0.287215125    -1.599647618
 H        0.835948790    -0.107359747    -2.965444969
 H       -0.733101928     0.717045572    -2.969766380
 H       -0.563309305    -0.874564326    -3.699504102
 H       -0.503722751    -2.954277580     0.836508206
 H       -0.696430579    -2.788690958     2.576395041
 H        0.859653168    -2.435354418     1.841551665
 H       -0.649075498     0.942240861     2.841444491
 H        0.746981451    -0.119382472     3.079624545
 H       -0.827491410    -0.579789970     3.711209715

