187   

Si        0.000000000     0.000000000     0.000000000
 C        1.865405468     0.000000000     0.000000000
 C       -0.668879282     1.715365752     0.000000000
 C        0.129041371     2.795597113     0.390845697
 C       -0.382663898     4.092906049     0.388973277
 C       -1.702635502     4.340085051     0.002649716
 C       -2.502271427     3.256309006    -0.383872661
 C       -1.994183280     1.960037516    -0.383651942
 C       -2.278987676     5.680629583    -0.014311510
 C       -1.619654364     6.799388515     0.331565216
 C       -2.191271945     8.141698279     0.316316106
 C       -3.510040578     8.396182587    -0.068728435
 C       -4.014579741     9.696785495    -0.067932876
 C       -3.213216719    10.768943082     0.333979579
 C       -1.890254091    10.516591099     0.723776399
 C       -1.386325096     9.219568533     0.709718331
Si       -3.836400410    12.499387237     0.350894268
 C       -3.151525220    13.426899923     1.769623075
 C       -2.820044467    12.851626056     2.933278081
 C       -2.270708685    13.566175826     4.084929417
 C       -1.967959736    12.836554214     5.242827478
 C       -1.445586080    13.456774429     6.365552192
 C       -1.152353646    14.837982000     6.348085643
 C       -1.458273232    15.570397577     5.185046690
 C       -2.033417732    14.943196519     4.087770921
 N       -0.622212099    15.455122577     7.495219173
 C        0.238997108    14.630581066     8.366448812
 C       -0.151588669    16.841420185     7.341758979
 C        1.377357357    13.874555273     7.656018044
 C        2.644308385    14.726576381     7.447062196
 N        3.267046842    14.584842387     6.110440011
 C        2.494557611    15.217392959     5.085649624
 C        2.560719248    16.621302153     5.039989316
 C        1.843796023    17.315549996     4.079103501
 C        1.056494813    16.635273714     3.137568859
 C        1.012415929    15.239669983     3.177286899
 C        1.735116880    14.529940498     4.132409540
 C        3.675936364    13.200926607     5.812994942
 C        0.324030700    17.429308658     2.149176673
 C       -0.464309074    16.921145830     1.192767324
Si       -1.352032810    17.975888719    -0.012413880
 C       -1.765910811    19.610767724     0.720256159
 C       -2.142016060    19.683361000     2.068875356
 C       -2.460140572    20.908541289     2.647238263
 C       -2.422514047    22.088810760     1.892553937
 C       -2.054304990    22.011871407     0.546741596
 C       -1.730558815    20.786085545    -0.034979594
 C       -2.764461516    23.349199018     2.543508830
 C       -2.763794274    24.548351648     1.936983119
 C       -3.105653181    25.809016240     2.587465804
 C       -3.474020121    25.887891946     3.932896483
 C       -3.793017098    27.115022276     4.514303353
 C       -3.755286451    28.291207866     3.758942866
 C       -3.386272604    28.214675628     2.408998568
 C       -3.063672909    26.989233512     1.832898854
Si       -4.173512995    29.918479308     4.511634591
 C       -5.012507713    29.714233341     6.164987940
 C       -2.579925961    30.931132113     4.753555037
 C       -5.310416916    30.858644321     3.308686032
 C       -0.278691278    18.165295173    -1.568084342
 C       -2.976841978    17.105564269    -0.479270957
 C       -3.281467532    13.366253517    -1.248622688
 C       -5.735254999    12.532402814     0.436943181
 C       -0.653237269    -0.908472639    -1.540125513
 C       -0.625120864    -0.914790618     1.547280669
 H        1.169120577     2.665557113     0.702482637
 H        0.260533119     4.916341529     0.694101081
 H       -3.533328746     3.426580765    -0.687934508
 H       -2.665535998     1.154701293    -0.694387546
 H       -3.322672371     5.726662492    -0.338277645
 H       -0.575601001     6.751595906     0.655213882
 H       -4.156704866     7.576974431    -0.377173908
 H       -5.051276386     9.834192865    -0.386781034
 H       -1.218356550    11.318943012     1.049141416
 H       -0.355966416     9.042301498     1.011996854
 H       -3.041751768    14.510256890     1.610383081
 H       -2.930273899    11.771876628     3.112445382
 H       -2.157726750    11.762603373     5.269662483
 H       -1.266813025    12.870186058     7.261490150
 H       -1.245568921    16.634119488     5.125172253
 H       -2.273745588    15.541252491     3.206072346
 H        0.253132138    17.213967597     8.296224934
 H       -1.012588308    17.486458847     7.085541376
 H        0.622146663    16.959041911     6.562371694
 H        4.420917056    12.888510676     6.565252404
 H        4.173827560    13.176138794     4.827518035
 H        2.856762097    12.466027693     5.810467873
 H        3.189573639    17.149748992     5.754070548
 H        1.902201947    18.404026254     4.050437758
 H        0.402947553    14.689049593     2.458109357
 H        1.680390816    13.444802919     4.144866277
 H        0.478781130    18.511743811     2.275100743
 H       -0.601388638    15.836237287     1.071979098
 H       -2.192574308    18.793027200     2.705894078
 H       -2.744886544    20.947138640     3.697070624
 H       -2.017463812    22.913427481    -0.061976021
 H       -1.450162810    20.789912312    -1.091766595
 H       -3.034309111    23.259886514     3.599839344
 H       -2.494674621    24.637295289     0.880308489
 H       -3.515161611    24.986478148     4.541531827
 H       -4.074164882    27.113340958     5.571034467
 H       -3.339900235    29.100795432     1.769581725
 H       -2.778264977    26.950048034     0.783333478
 H        0.648696051    15.272394397     9.176875561
 H       -0.430125674    13.897052653     8.879038745
 H        1.628053207    12.966263583     8.233237770
 H        1.015201374    13.501089896     6.674523146
 H        2.422256996    15.804891386     7.606338015
 H        3.418988081    14.457574439     8.198982083
 H        2.263666754    -1.029202269    -0.049478176
 H        2.276258070     0.471706285     0.909617698
 H        2.259798323     0.550968717    -0.873270262
 H       -5.297759218    30.693116253     6.590242569
 H       -4.356966049    29.211888528     6.897682448
 H       -5.934932374    29.113007096     6.069327555
 H       -2.899264635    31.884487047     5.265742102
 C       -1.561269625    30.219052076     5.662531192
 C       -1.883262409    31.309263739     3.434221951
 H       -4.715692689    30.986911207     2.357711993
 C       -6.585175626    30.067877155     2.963125937
 C       -5.708716069    32.259031900     3.807529528
 H       -0.868657417    18.812870103    -2.279242218
 C        1.056887705    18.871520967    -1.274145894
 C        0.008077047    16.827178386    -2.272908212
 H       -2.686135269    16.047973850    -0.751202513
 C       -3.970161233    17.051267738     0.694362951
 C       -3.681415782    17.730643715    -1.695205979
 H       -3.694556576    14.416549737    -1.189737413
 C       -1.749219417    13.456696899    -1.363563466
 C       -3.841068194    12.708770591    -2.521136391
 H       -6.098136370    11.956089058    -0.462487376
 C       -6.273291555    11.838281801     1.701073642
 C       -6.326232787    13.951576425     0.359602884
 H       -1.777965667    -0.913445400    -1.443480494
 C       -0.296290372    -0.181383913    -2.849249357
 C       -0.183459141    -2.371092635    -1.634916953
 H       -0.148437747    -1.936803569     1.513106860
 C       -0.190833376    -0.228841056     2.855548637
 C       -2.152890891    -1.101281615     1.571437619
 H       -1.955061934    29.984766984     6.659859485
 H       -0.684342244    30.862790099     5.822278118
 H       -1.180869461    29.283941228     5.226832408
 H       -2.517874827    31.896539520     2.758602773
 H       -1.517449138    30.434099845     2.878902931
 H       -0.999642726    31.930630413     3.641313571
 H       -6.378398424    29.070863957     2.548323988
 H       -7.165819056    30.603647462     2.198704773
 H       -7.254858699    29.935466325     3.823199365
 H       -4.848271158    32.909465819     4.011186648
 H       -6.328561181    32.230652194     4.713478351
 H       -6.307903068    32.773311749     3.041989657
 H        0.937126556    19.863448057    -0.817177101
 H        1.614786405    19.029104171    -2.207943998
 H        1.715160543    18.283729682    -0.617624317
 H       -0.900850251    16.299854735    -2.591054821
 H        0.600257210    16.136823982    -1.655715347
 H        0.595914343    17.001993373    -3.185574684
 H       -3.556712531    16.593234212     1.603452723
 H       -4.848707848    16.450290202     0.417186895
 H       -4.354663853    18.043314039     0.972507479
 H       -3.069842364    17.723844986    -2.606285641
 H       -4.004804340    18.765957328    -1.518674391
 H       -4.592590450    17.162953269    -1.934426839
 H       -1.273231355    13.951197258    -0.505098313
 H       -1.471491546    14.041132315    -2.252355688
 H       -1.273408692    12.472818657    -1.484272699
 H       -4.937805908    12.691365190    -2.557019859
 H       -3.487467318    11.677448269    -2.662342945
 H       -3.514014080    13.268066614    -3.409645374
 H       -5.942444594    10.795619089     1.803324866
 H       -7.371739322    11.811473837     1.679543543
 H       -5.995509976    12.363648242     2.626825040
 H       -6.054551777    14.486726693    -0.559239132
 H       -6.040519016    14.578787158     1.216180864
 H       -7.424752677    13.901694400     0.370440597
 H       -0.649451151     0.859419658    -2.877951950
 H       -0.766903172    -0.688927457    -3.703260734
 H        0.782625254    -0.169662022    -3.053298529
 H       -0.467942582    -2.976516930    -0.764657170
 H        0.902582572    -2.464676218    -1.767112974
 H       -0.641593212    -2.856184401    -2.509152551
 H        0.897599074    -0.130018641     2.956098921
 H       -0.526487060    -0.819729159     3.719880777
 H       -0.629345811     0.771945813     2.978708934
 H       -2.535985384    -1.669671154     0.714522845
 H       -2.698869640    -0.148184828     1.615360535
 H       -2.448388431    -1.664372718     2.468726534

