187   

Si        0.000000000     0.000000000     0.000000000
 C        1.863910473     0.000000000     0.000000000
 C       -0.685294962     1.708134753     0.000000000
 C        0.110580823     2.809988583     0.327444008
 C       -0.426034472     4.097474601     0.322132027
 C       -1.767490723     4.311445048    -0.004724397
 C       -2.564640744     3.205721999    -0.328247315
 C       -2.031860368     1.920170377    -0.324334524
 C       -2.372049615     5.639281986    -0.023511122
 C       -1.717807595     6.776774425     0.265508748
 C       -2.314172739     8.107818387     0.249189608
 C       -1.509080003     9.207482133     0.573528610
 C       -2.031460714    10.498423326     0.572282573
 C       -3.373801510    10.719286184     0.242697212
 C       -4.180447907     9.621479007    -0.079547108
 C       -3.656109839     8.329953954    -0.072443427
Si       -4.084253844    12.417238539     0.234913882
 C       -5.399675075    12.561708902    -1.027937276
 C       -5.404424500    11.846859617    -2.160785502
 C       -6.438236795    11.935227209    -3.192986957
 C       -6.309681865    11.121234873    -4.331136225
 C       -7.254799443    11.160431054    -5.340377263
 C       -8.363915128    12.022329870    -5.233038673
 C       -8.490592225    12.846312692    -4.108698657
 C       -7.522541862    12.808499609    -3.107285037
 N       -9.291638731    12.001438613    -6.317691761
 C      -10.057423706    10.734669143    -6.364784690
 C      -10.150397923    13.192000138    -6.438159651
 C      -11.045116483    10.536722098    -5.193547018
 C      -10.976358359     9.107935429    -4.621992324
 N       -9.686354957     8.871145643    -3.936298866
 C       -9.331016987     7.509544701    -3.737382782
 C      -10.216612077     6.440464687    -3.943126699
 C       -9.792594338     5.135368486    -3.726538782
 C       -8.479609693     4.856616905    -3.329101491
 C       -7.592400627     5.924833934    -3.148685008
 C       -8.002583738     7.232901460    -3.358489582
 C       -9.525531628     9.694471392    -2.719765041
 C       -8.100247292     3.458521555    -3.118588568
 C       -6.883468792     3.045802999    -2.739060708
Si       -6.469717485     1.280981122    -2.492036864
 C       -7.463951457     0.190163419    -3.589947235
 C       -7.763914680     0.614316758    -4.891609727
 C       -8.514516467    -0.192784441    -5.741632464
 C       -8.972742946    -1.448026666    -5.319329358
 C       -8.664767536    -1.871985864    -4.023936585
 C       -7.916871403    -1.063358815    -3.168223894
 C       -9.755995160    -2.257152945    -6.247163361
 C      -10.257973997    -3.472157774    -5.968496980
 C      -11.041133045    -4.280422206    -6.897180647
 C      -11.348533950    -3.855538856    -8.192307509
 C      -12.100530843    -4.660753118    -9.047534851
 C      -12.557503464    -5.913654727    -8.626680706
 C      -12.250841728    -6.341995920    -7.328024870
 C      -11.505033060    -5.533496894    -6.474683652
Si      -13.550912112    -6.986283502    -9.745474181
 C      -13.422878204    -6.428403114   -11.520854442
 C      -12.929663500    -8.777672880    -9.574430815
 C      -15.377460241    -6.929588631    -9.212669351
 C       -4.632176764     1.014853380    -2.899807576
 C       -6.759002014     0.826472746    -0.666791585
 C       -4.847098356    12.772740800     1.940058467
 C       -2.731795441    13.705512775    -0.117873057
 C       -0.649928205    -0.893189869    -1.550924756
 C       -0.644312732    -0.928403322     1.530727337
 H        1.166559468     2.705048803     0.590402540
 H        0.215342255     4.938800459     0.577808352
 H       -3.612858096     3.355255060    -0.585463567
 H       -2.698447706     1.091150907    -0.586018419
 H       -3.431569118     5.658483040    -0.296496340
 H       -0.658605638     6.754763347     0.538823968
 H       -0.462393065     9.054716623     0.829727384
 H       -1.355543413    11.316654209     0.835499249
 H       -5.238861070     9.735132854    -0.340074563
 H       -4.304472527     7.491831968    -0.323360525
 H       -6.189358524    13.292886995    -0.803927068
 H       -4.616405690    11.118609113    -2.405902544
 H       -5.458538326    10.445162745    -4.419799642
 H       -7.152216720    10.527042113    -6.220597584
 H       -9.334528365    13.521040808    -4.009026932
 H       -7.629098168    13.464449978    -2.243710762
 H      -10.660570316    13.154079828    -7.416694031
 H       -9.520643607    14.098575025    -6.433899114
 H      -10.915256461    13.289784009    -5.653426714
 H       -9.328593411    10.739516404    -3.024819375
 H       -8.650651434     9.370133334    -2.131904998
 H      -10.407632620     9.672227048    -2.062303683
 H      -11.245735155     6.616638524    -4.239730994
 H      -10.498874792     4.316958287    -3.872324695
 H       -6.562272797     5.729712555    -2.848355899
 H       -7.296998972     8.054509260    -3.240375797
 H       -8.926991109     2.758960038    -3.314819427
 H       -6.069577875     3.758075118    -2.540514981
 H       -7.429499641     1.583780586    -5.276923207
 H       -8.743872880     0.156664783    -6.746710773
 H       -9.007848688    -2.842548402    -3.670868787
 H       -7.707674420    -1.449919824    -2.167203905
 H       -9.919147898    -1.799374358    -7.227407905
 H      -10.094848945    -3.930386403    -4.988683459
 H      -11.001139525    -2.886520809    -8.546118177
 H      -12.308774828    -4.274180202   -10.049066101
 H      -12.581369234    -7.311258843    -6.944262190
 H      -11.278760167    -5.882759349    -5.469073207
 H      -10.593209619    10.701118330    -7.336712683
 H       -9.319840970     9.895984440    -6.382586992
 H      -10.839915143    11.272442482    -4.392912662
 H      -12.077604937    10.741916498    -5.528056134
 H      -11.844479172     8.937613571    -3.947027690
 H      -11.064832800     8.382981463    -5.464569114
 H        2.262681196    -1.029405499    -0.042674968
 H        2.275263775     0.477585393     0.906495907
 H        2.258706281     0.545288010    -0.876682974
 H      -13.981074673    -7.105338690   -12.191999498
 H      -12.370345072    -6.420791429   -11.858064828
 H      -13.829270622    -5.411632021   -11.661617041
 H      -13.086016315    -9.057513115    -8.492011800
 C      -13.711632568    -9.783597724   -10.437745157
 C      -11.427687908    -8.913110371    -9.883368282
 H      -15.934421490    -7.560445034    -9.964247909
 C      -15.628770897    -7.521337524    -7.814188272
 C      -15.961830337    -5.505841540    -9.258167743
 H       -4.049391127     1.640276977    -2.162501688
 C       -4.199894073    -0.452793127    -2.740187494
 C       -4.263669171     1.494394010    -4.314622917
 H       -6.468922999    -0.259221111    -0.565394201
 C       -5.900779915     1.638567410     0.318909031
 C       -8.239299839     0.966853681    -0.267749304
 H       -5.258865125    13.821637679     1.886141295
 C       -6.010429738    11.818659151     2.266089911
 C       -3.820588231    12.719759977     3.084786898
 H       -1.978710568    13.605265094     0.716443721
 C       -2.008327814    13.443722768    -1.450992831
 C       -3.256971248    15.152301279    -0.111307159
 H       -1.772700293    -0.934041973    -1.430889997
 C       -0.340107375    -0.125490098    -2.848581275
 C       -0.141250458    -2.338470703    -1.688228922
 H       -0.174217700    -1.953115094     1.488267706
 C       -0.215066040    -0.260707925     2.849847787
 C       -2.173914865    -1.105392393     1.542647405
 H      -14.788406062    -9.794961013   -10.224908178
 H      -13.349949624   -10.804160314   -10.244824432
 H      -13.585380379    -9.612524431   -11.515049798
 H      -10.796501823    -8.259509309    -9.264251590
 H      -11.185375369    -8.707247586   -10.934429888
 H      -11.092946245    -9.941197800    -9.684491981
 H      -15.320677549    -8.570568019    -7.722905726
 H      -16.704033661    -7.497112962    -7.584239567
 H      -15.132699179    -6.952791311    -7.014802370
 H      -15.896828233    -5.038834202   -10.249300633
 H      -15.485372217    -4.825559485    -8.537507021
 H      -17.030169017    -5.528609555    -8.999271482
 H       -4.309032172    -0.831294065    -1.715994566
 H       -3.136013322    -0.560219574    -3.003587400
 H       -4.743164298    -1.137036794    -3.407354689
 H       -4.501247779     2.551905886    -4.493345482
 H       -4.748463215     0.906661355    -5.106371514
 H       -3.180375991     1.392188154    -4.475292265
 H       -4.821803921     1.491058415     0.179145020
 H       -6.117824636     1.326408070     1.350982458
 H       -6.105699750     2.717297154     0.279656745
 H       -8.921965287     0.373886306    -0.891707469
 H       -8.591482265     2.008464159    -0.295163000
 H       -8.387981845     0.619110601     0.764113900
 H       -6.815113574    11.839068093     1.518513264
 H       -6.471623865    12.099928736     3.223446616
 H       -5.686982234    10.773497984     2.377303845
 H       -3.003085178    13.443144501     2.971352489
 H       -3.371653672    11.724102873     3.211738630
 H       -4.310299393    12.957863723     4.040284934
 H       -1.553175697    12.445503851    -1.513273461
 H       -1.189209860    14.164436026    -1.584209684
 H       -2.666522201    13.560498495    -2.324317769
 H       -3.725091397    15.442945305     0.837695451
 H       -3.979479869    15.347990736    -0.916083194
 H       -2.425088680    15.854007116    -0.269635674
 H       -0.743001548     0.897755386    -2.853286173
 H       -0.790927835    -0.639257528    -3.709875726
 H        0.735024873    -0.057191578    -3.061334170
 H       -0.386430285    -2.970428120    -0.824961950
 H        0.943491078    -2.397639471    -1.847976435
 H       -0.606050375    -2.818938136    -2.561756103
 H        0.873049379    -0.165323999     2.957498832
 H       -0.555804612    -0.862021401     3.704946569
 H       -0.651755606     0.739432274     2.984038949
 H       -2.556508846    -1.654092569     0.672676603
 H       -2.713567031    -0.149688397     1.605325009
 H       -2.476663805    -1.685420811     2.426600623

