187   

Si        0.000000000     0.000000000     0.000000000
 C        1.865230228     0.000000000     0.000000000
 C       -0.675750411     1.712230146     0.000000000
 C        0.153120419     2.819441734     0.205263428
 C       -0.374644864     4.110718029     0.202320482
 C       -1.742859855     4.320686485     0.017332358
 C       -2.573318347     3.209700786    -0.183875794
 C       -2.047301573     1.921739437    -0.199443358
 C       -2.342741270     5.648938492     0.006103546
 C       -1.673423046     6.802948981     0.167636180
 C       -2.301059570     8.120539750     0.151811360
 C       -1.502121196     9.257400139     0.331024130
 C       -2.065663517    10.530764363     0.321921128
 C       -3.440986124    10.696507905     0.114892389
 C       -4.241662889     9.563774389    -0.061556636
 C       -3.675974670     8.290475100    -0.031228998
Si       -4.193304875    12.374761519     0.101379063
 C       -6.009709396    12.211974630     0.214271308
 C       -6.902320262    12.807679719    -0.586703391
 C       -8.351079968    12.645277575    -0.455386272
 C       -9.193120979    13.318546965    -1.352072341
 C      -10.570232176    13.195839414    -1.267382373
 C      -11.152237838    12.337330586    -0.311020292
 C      -10.309146618    11.653661567     0.580824964
 C       -8.931760357    11.825555953     0.515032088
 N      -12.561815412    12.236194913    -0.252253580
 C      -13.236393040    12.121977589    -1.561601733
 C      -13.114336188    11.302698021     0.744116031
 C      -12.751720279    10.930382397    -2.410227964
 C      -12.464618189    11.373571845    -3.856209401
 N      -11.932673633    10.301339630    -4.706894255
 C      -10.612221191     9.864812337    -4.505179955
 C       -9.673909539    10.646523564    -3.800453089
 C       -8.376005507    10.193504070    -3.614495063
 C       -7.949444200     8.971723436    -4.152110759
 C       -8.873993196     8.210982802    -4.874190072
 C      -10.179072344     8.643316761    -5.059565978
 C      -12.932942602     9.269198776    -5.027467824
 C       -6.570929153     8.526397836    -3.934607935
 C       -6.082460693     7.373952302    -4.412602772
Si       -4.386911659     6.727995140    -4.199887086
 C       -3.681879640     6.219371447    -5.820655015
 C       -4.267420403     6.636115110    -7.019796870
 C       -3.725867605     6.245474114    -8.244288048
 C       -2.584500044     5.441137929    -8.296205197
 C       -1.994906799     5.031255465    -7.092467146
 C       -2.534116832     5.416712852    -5.868551332
 C       -1.983683426     5.008506206    -9.553617324
 C       -2.446773377     5.328791094   -10.773811640
 C       -1.845435558     4.895793542   -12.030740074
 C       -0.705740699     4.089166790   -12.083154105
 C       -0.163816229     3.698398563   -13.307580836
 C       -0.748345152     4.111967825   -14.508615192
 C       -1.891319777     4.921612136   -14.458958528
 C       -2.432739771     5.305616166   -13.235446000
Si       -0.046277391     3.605605152   -16.132795064
 C        1.646000823     2.843623633   -15.942767942
 C       -1.197565105     2.331813608   -16.954762945
 C        0.046443791     5.146537038   -17.246619524
 C       -3.231695241     8.056014378    -3.479442170
 C       -4.475041328     5.250879308    -2.996627472
 C       -3.551517839    13.375147566     1.582573114
 C       -3.703123307    13.254973602    -1.512619359
 C       -0.665177551    -0.884376539    -1.549027381
 C       -0.607731014    -0.933117837     1.543299213
 H        1.229598736     2.715490400     0.365433465
 H        0.292868692     4.956911904     0.353202286
 H       -3.641725029     3.353939274    -0.338522319
 H       -2.741178391     1.094110609    -0.372041934
 H       -3.428463102     5.654676918    -0.144062375
 H       -0.591719706     6.807634048     0.322773888
 H       -0.430411412     9.147395515     0.482383118
 H       -1.396197483    11.381025630     0.477589776
 H       -5.322070698     9.633090373    -0.229692686
 H       -4.322554673     7.421222354    -0.152172107
 H       -6.336863848    11.565259385     1.045939101
 H       -6.614248077    13.468713188    -1.414554703
 H       -8.761614881    13.964133045    -2.118002104
 H      -11.202285284    13.765622011    -1.942858057
 H      -10.716868810    10.980628469     1.328346311
 H       -8.300028232    11.290369590     1.225848170
 H      -14.213386188    11.399472399     0.764052156
 H      -12.754529976    11.584669431     1.749857815
 H      -12.860504171    10.247606260     0.553886988
 H      -13.944567755     9.705487080    -5.052466900
 H      -12.934834336     8.430462408    -4.311992002
 H      -12.730712071     8.873426036    -6.040039588
 H       -9.962131027    11.601894599    -3.367687278
 H       -7.679284496    10.805356703    -3.037006810
 H       -8.571681687     7.256170468    -5.308233672
 H      -10.858906850     8.024255321    -5.635085602
 H       -5.972744846     9.230638493    -3.341625898
 H       -6.722336281     6.690390037    -4.996421987
 H       -5.158423113     7.271836229    -7.040099413
 H       -4.201932587     6.578051546    -9.164677273
 H       -1.104759260     4.405700190    -7.112139734
 H       -2.030322778     5.070610073    -4.960338885
 H       -1.094924639     4.380233142    -9.443225395
 H       -3.335357406     5.957178616   -10.884303169
 H       -0.229185696     3.756813188   -11.162726224
 H        0.727798381     3.065890696   -13.284284528
 H       -2.390375800     5.276014929   -15.365233479
 H       -3.321729495     5.933257384   -13.217087827
 H      -14.332649627    12.052631581    -1.388009956
 H      -13.088377659    13.086086369    -2.100383984
 H      -11.830561145    10.489294065    -1.975543208
 H      -13.494098151    10.114911816    -2.395906705
 H      -13.394496747    11.759912005    -4.333599446
 H      -11.744424618    12.225370929    -3.866641134
 H        2.263233544    -1.030186011    -0.029814871
 H        2.273811441     0.488088651     0.902235378
 H        2.262092728     0.533792165    -0.882504653
 H        2.079022065     2.586271951   -16.925813516
 H        1.612473594     1.918205398   -15.341578576
 H        2.342513815     3.543737626   -15.446633253
 H       -0.672603215     2.014040737   -17.901683316
 C       -1.408767900     1.079994421   -16.083300459
 C       -2.574509764     2.900160016   -17.342016341
 H       -1.013891450     5.521839029   -17.343431105
 C        0.888887644     6.274108195   -16.622910704
 C        0.572832683     4.850990188   -18.662290262
 H       -3.702191780     8.394575492    -2.509876759
 C       -1.817799644     7.536491899    -3.168101011
 C       -3.104635620     9.281409731    -4.403338503
 H       -3.460825138     5.187068911    -2.504298504
 C       -5.536363616     5.450257349    -1.898174494
 C       -4.743193095     3.904840024    -3.692431142
 H       -2.435084911    13.459547353     1.440599058
 C       -4.132261784    14.798648404     1.645852588
 C       -3.805851727    12.667917436     2.925800028
 H       -4.239967065    14.247230383    -1.498413674
 C       -2.193807081    13.533297598    -1.623621332
 C       -4.154677747    12.479791707    -2.763761807
 H       -1.787816280    -0.909273828    -1.431127323
 C       -0.346761065    -0.120185443    -2.847011785
 C       -0.173084031    -2.335837278    -1.686159443
 H       -0.101042235    -1.940870327     1.506908443
 C       -0.192745325    -0.237307203     2.852845071
 C       -2.128641996    -1.167145228     1.571242436
 H       -0.475044659     0.562243618   -15.828892078
 H       -2.029444649     0.347941621   -16.619448125
 H       -1.934614132     1.298707819   -15.142617544
 H       -2.516535228     3.751073255   -18.032415890
 H       -3.167897455     3.211337233   -16.470723451
 H       -3.167474092     2.129249696   -17.855402937
 H        0.532248649     6.582691571   -15.629602209
 H        0.846194131     7.171368542   -17.256594933
 H        1.951238031     6.013906561   -16.526681008
 H       -0.024216991     4.103876488   -19.200918957
 H        1.617308752     4.512339992   -18.668838805
 H        0.543031629     5.765631898   -19.272209711
 H       -1.803388578     6.672601337    -2.489408719
 H       -1.236857925     8.321422431    -2.660606995
 H       -1.252529521     7.266040407    -4.069807024
 H       -4.063957543     9.772612451    -4.614768020
 H       -2.637164421     9.042563716    -5.369369617
 H       -2.460286487    10.037973250    -3.931952366
 H       -5.434396849     6.396313147    -1.350149448
 H       -5.470951891     4.643476523    -1.155614167
 H       -6.562131982     5.420100929    -2.294367667
 H       -3.994781086     3.650732278    -4.455616493
 H       -5.728753223     3.858736119    -4.173825280
 H       -4.717657560     3.088701174    -2.956487443
 H       -3.915267883    15.397799749     0.752137126
 H       -3.697232360    15.345333909     2.494965599
 H       -5.220982586    14.810753923     1.798559087
 H       -3.377696530    11.656712885     2.973587378
 H       -4.873261904    12.589474316     3.173599160
 H       -3.340649970    13.235869149     3.744320493
 H       -1.801313924    14.151688086    -0.806665734
 H       -1.981152466    14.084176147    -2.551692152
 H       -1.591937924    12.614699143    -1.670773277
 H       -5.236949683    12.294574621    -2.801541856
 H       -3.652181005    11.505604852    -2.864146110
 H       -3.907286705    13.049110241    -3.670713612
 H       -0.725992197     0.912128916    -2.846797173
 H       -0.819442844    -0.620525158    -3.704395960
 H        0.727749019    -0.078080561    -3.068355855
 H       -0.426533727    -2.964716726    -0.822977178
 H        0.911074670    -2.407211648    -1.845268427
 H       -0.643099039    -2.810249826    -2.560050416
 H        0.892415729    -0.106166626     2.953016812
 H       -0.510092952    -0.839571501     3.716255306
 H       -0.659851999     0.750082683     2.978529379
 H       -2.501109587    -1.722936118     0.701522917
 H       -2.702528906    -0.232978167     1.647254036
 H       -2.399703674    -1.764256230     2.454313229

