187   

Si        0.000000000     0.000000000     0.000000000
 C        1.865360283     0.000000000     0.000000000
 C       -0.677475933     1.711447219     0.000000000
 C        0.126960082     2.805481683    -0.334213890
 C       -0.396542927     4.098310880    -0.331044105
 C       -1.734837371     4.326582988    -0.000739598
 C       -2.540820128     3.228769908     0.329622160
 C       -2.020828837     1.937446701     0.329245069
 C       -2.325656114     5.660614333     0.015932049
 C       -1.665613745     6.793682215    -0.277419429
 C       -2.257253827     8.127423301    -0.260499999
 C       -1.451388869     9.225971168    -0.588831694
 C       -1.971881969    10.517307924    -0.586302258
 C       -3.316375455    10.739287189    -0.262222124
 C       -4.123135321     9.644698741     0.065516218
 C       -3.596332906     8.353500873     0.069251348
Si       -4.009745882    12.443185517    -0.257185644
 C       -5.834252307    12.370093751    -0.326216391
 C       -6.678648158    13.019864243     0.485402507
 C       -8.136941652    12.931480902     0.393253534
 C       -8.919391791    13.660071568     1.301418734
 C      -10.302535132    13.610711023     1.256552511
 C      -10.957602701    12.780612234     0.320883166
 C      -10.174080203    12.047769668    -0.589144829
 C       -8.788423868    12.145124752    -0.560122847
 N      -12.364557517    12.748586053     0.295856301
 C      -13.045766022    12.780911798     1.602981165
 C      -12.995913704    11.820315129    -0.655825257
 C      -12.588255583    11.668116928     2.568683552
 C      -13.684420318    11.307829798     3.587896245
 N      -14.473081773    10.102670517     3.241391124
 C      -15.098829657    10.181841408     1.966401491
 C      -16.080549057    11.176882496     1.788240504
 C      -16.726813606    11.305793393     0.570092183
 C      -16.442164235    10.435885637    -0.493993122
 C      -15.485803335     9.436462269    -0.303324233
 C      -14.824359891     9.298996449     0.912806276
 C      -13.736098367     8.855033623     3.511045414
 C      -17.153947207    10.615380293    -1.761790728
 C      -16.962346122     9.845730606    -2.840443612
Si      -17.816876805    10.018134250    -4.447316137
 C      -18.485595431     8.388796356    -4.974049463
 C      -18.721612533     7.383293705    -4.028495501
 C      -19.228175154     6.148309113    -4.425554705
 C      -19.520881955     5.892229241    -5.771510611
 C      -19.289800800     6.900855549    -6.711532339
 C      -18.778419735     8.136985694    -6.318642464
 C      -20.049924347     4.582505114    -6.137543431
 C      -20.366887639     4.207216060    -7.388342858
 C      -20.895894674     2.897250118    -7.753521411
 C      -21.127001445     1.888895641    -6.814362078
 C      -21.634041811     0.650458892    -7.207545778
 C      -21.914750651     0.391413382    -8.552728588
 C      -21.682823863     1.400799288    -9.497011720
 C      -21.182126921     2.637846340    -9.100682294
Si      -22.584271876    -1.238053701    -9.087307142
 C      -22.434725229    -2.517509491    -7.738175124
 C      -24.421275701    -1.047265467    -9.548088614
 C      -21.627374218    -1.798950190   -10.634342209
 C      -19.241203972    11.272828223    -4.342211743
 C      -16.551271730    10.634921761    -5.727539566
 C       -3.415375750    13.356432994     1.301436998
 C       -3.383302684    13.378642496    -1.791622185
 C       -0.617505808    -0.919137356    -1.548146669
 C       -0.654525034    -0.907323603     1.540371694
 H        1.180913574     2.689878618    -0.601741297
 H        0.251797423     4.933030696    -0.591136716
 H       -3.586125061     3.384285238     0.589713445
 H       -2.697605593     1.120770558     0.595809486
 H       -3.383603693     5.688714232     0.293163648
 H       -0.607821324     6.765630751    -0.554623565
 H       -0.405939144     9.071014432    -0.848036529
 H       -1.296087333    11.335840765    -0.848830953
 H       -5.179474267     9.760573181     0.329749742
 H       -4.242814524     7.517941776     0.331056282
 H       -6.211314385    11.726098490    -1.138403680
 H       -6.336453232    13.675247282     1.296954157
 H       -8.433455555    14.288218213     2.048410043
 H      -10.883188317    14.215452216     1.947230799
 H      -10.638524434    11.400034302    -1.326023766
 H       -8.204812747    11.578587698    -1.287692038
 H      -14.094060994    11.952872632    -0.631444514
 H      -12.782970044    10.759088186    -0.448794561
 H      -12.668465154    12.065840798    -1.681447571
 H      -13.481485708     8.822645024     4.585261480
 H      -12.807552219     8.738820097     2.930838989
 H      -14.392998592     7.990333270     3.311543858
 H      -16.334098211    11.834673203     2.617054261
 H      -17.478092837    12.085744667     0.443492003
 H      -15.251564383     8.743628105    -1.113337339
 H      -14.084267290     8.512182511     1.026745140
 H      -17.870355905    11.446673489    -1.742322518
 H      -16.229758404     9.020508191    -2.827213838
 H      -18.517181705     7.529263703    -2.962792149
 H      -19.400330865     5.375759101    -3.678311358
 H      -19.508852241     6.727464430    -7.763453294
 H      -18.616986520     8.886266380    -7.098524662
 H      -20.180365077     3.891469632    -5.299445618
 H      -20.236721176     4.897725533    -8.226778713
 H      -20.913080959     2.063545667    -5.761412781
 H      -21.794945385    -0.098368150    -6.427037877
 H      -21.883077583     1.255070990   -10.562273131
 H      -21.010054345     3.409726738    -9.848429336
 H      -12.877205215    13.782277556     2.059216842
 H      -14.143833921    12.714580879     1.422271315
 H      -12.293462761    10.769996509     1.992199351
 H      -11.665730539    11.983795601     3.090251554
 H      -13.234057513    11.141405602     4.592143372
 H      -14.397590978    12.152501541     3.717179416
 H        2.263088376    -1.029080376     0.055551639
 H        2.260772578     0.556091970     0.869465726
 H        2.275208626     0.465971530    -0.913093997
 H      -22.795045899    -3.503199170    -8.083008583
 H      -23.023504419    -2.242094803    -6.845715541
 H      -21.382322598    -2.640637376    -7.423930440
 H      -24.780627913    -2.086103531    -9.802704540
 C      -25.271513185    -0.521811105    -8.376808824
 C      -24.660122622    -0.147074158   -10.773471785
 H      -21.800762094    -0.999254820   -11.412036908
 C      -20.110853072    -1.893367777   -10.387019053
 C      -22.125238197    -3.135058945   -11.213455691
 H      -18.792736817    12.217818009    -3.918554327
 C      -19.857606414    11.611138196    -5.711220848
 C      -20.363501002    10.807470675    -3.396448652
 H      -17.122878335    10.764600388    -6.691753180
 C      -15.931204453    11.992835278    -5.354247268
 C      -15.422487683     9.619068548    -5.977454002
 H       -3.951845378    14.349434313     1.301307590
 C       -3.786203159    12.609728235     2.595916080
 C       -1.901580060    13.634808183     1.309649146
 H       -2.260152987    13.420813065    -1.693150242
 C       -3.717356443    12.647555508    -3.104133022
 C       -3.909616484    14.822241141    -1.872292028
 H       -0.127154411    -1.934764305    -1.516544655
 C       -2.142465895    -1.126477230    -1.572494657
 C       -0.193602578    -0.224934520    -2.855507007
 H       -1.779259370    -0.910386043     1.443324394
 C       -0.187076682    -2.370652601     1.635836871
 C       -0.297143151    -0.179830686     2.849137211
 H      -25.225477090    -1.158619522    -7.484036616
 H      -26.330530141    -0.479545718    -8.669286063
 H      -24.995762680     0.498242358    -8.072611157
 H      -24.149662508    -0.498156212   -11.679147581
 H      -24.362024560     0.896624020   -10.600345633
 H      -25.732386706    -0.121941727   -11.016987676
 H      -19.671535927    -0.954586488   -10.020233220
 H      -19.589831462    -2.129650818   -11.325790230
 H      -19.840385163    -2.685082840    -9.675825367
 H      -23.189906178    -3.123812896   -11.480328726
 H      -21.958978030    -3.983717690   -10.536758500
 H      -21.579330719    -3.369272350   -12.139032899
 H      -19.140411056    12.051249873    -6.415680805
 H      -20.660043126    12.353337965    -5.588473037
 H      -20.319970117    10.741752282    -6.199772531
 H      -20.017305484    10.583455456    -2.378341919
 H      -20.889643986     9.915595596    -3.767027300
 H      -21.124784839    11.594140398    -3.297926983
 H      -16.673096185    12.793913536    -5.241424862
 H      -15.242954388    12.322210952    -6.146008118
 H      -15.339246736    11.954031671    -4.428504769
 H      -15.787136385     8.628627889    -6.284620545
 H      -14.772151157     9.477459551    -5.103449032
 H      -14.772780825     9.971181073    -6.791545947
 H       -4.861447502    12.407058871     2.694229470
 H       -3.502897448    13.209205520     3.472331160
 H       -3.261643026    11.648585514     2.697692263
 H       -1.565869323    14.245450885     0.461917916
 H       -1.297932811    12.716464401     1.324211550
 H       -1.627866496    14.193654307     2.216442961
 H       -3.335733170    11.617343689    -3.138180915
 H       -3.259375708    13.172150809    -3.954678325
 H       -4.795869234    12.609495979    -3.310313053
 H       -3.632668086    15.435842132    -1.005425545
 H       -5.002712443    14.873680981    -1.980413846
 H       -3.489739915    15.327555593    -2.753704898
 H       -2.518790655    -1.696531111    -0.713731178
 H       -2.429290533    -1.697083385    -2.467884094
 H       -2.701042744    -0.181002826    -1.621277268
 H        0.893185248    -0.109414507    -2.956076254
 H       -0.646905288     0.769428675    -2.977129878
 H       -0.520322352    -0.819406941    -3.720733126
 H       -0.466085736    -2.974242787     0.762569237
 H       -0.651697983    -2.856796453     2.505989817
 H        0.897973734    -2.465274892     1.775042536
 H       -0.650040967     0.861093947     2.877190950
 H        0.781736371    -0.168472417     3.053179604
 H       -0.768221299    -0.686807112     3.703253139

