187   

Si        0.000000000     0.000000000     0.000000000
 C        1.865612940     0.000000000     0.000000000
 C       -0.681835451     1.708326326     0.000000000
 C        0.130500110     2.814831116     0.265654471
 C       -0.403376205     4.103348843     0.261502850
 C       -1.761285802     4.311937831     0.007307443
 C       -2.575178871     3.201551069    -0.253640299
 C       -2.043502675     1.915604001    -0.259966157
 C       -2.363332702     5.639357366    -0.007348305
 C       -1.694690167     6.783050765     0.216774310
 C       -2.304456681     8.107991836     0.200382563
 C       -1.497008159     9.224851056     0.450051497
 C       -2.037141802    10.508862540     0.444294455
 C       -3.396060757    10.699255496     0.175598312
 C       -4.205894165     9.585235811    -0.078554487
 C       -3.663384353     8.302494232    -0.063721901
Si       -4.174340158    12.364121243     0.151810621
 C       -5.804241409    12.197433186     0.955281275
 C       -6.973343220    12.630451115     0.468248910
 C       -8.250120197    12.464648144     1.165435985
 C       -9.417052960    12.958108278     0.561450327
 C      -10.647046006    12.824561087     1.182711140
 C      -10.740791184    12.169271996     2.425905802
 C       -9.579477238    11.678133397     3.035262729
 C       -8.347203622    11.840616693     2.410490566
 N      -12.039673308    12.071087106     3.002545641
 C      -12.951715142    11.191963064     2.242619269
 C      -12.071841885    11.833593605     4.455110399
 C      -12.698701145     9.675918882     2.369942875
 C      -11.519605861     9.171002281     1.522733708
 N      -11.673159100     9.469809218     0.074641896
 C      -10.575208952     8.885747256    -0.664725217
 C      -10.490877701     7.512690819    -0.932789726
 C       -9.410834728     7.016026872    -1.647710948
 C       -8.399979432     7.871204813    -2.113579931
 C       -8.491004384     9.238090214    -1.834730867
 C       -9.565364326     9.744982246    -1.107305934
 C      -12.971920070     9.027707178    -0.480147770
 C       -7.294394025     7.263798651    -2.860651876
 C       -6.247088160     7.917788376    -3.379046363
Si       -4.890512446     7.096676715    -4.307392133
 C       -3.247235235     7.605257413    -3.660506512
 C       -2.962704729     8.965298895    -3.476037177
 C       -1.723806803     9.368322841    -2.987221507
 C       -0.726184237     8.427376428    -2.700625768
 C       -1.005981741     7.073574447    -2.898515622
 C       -2.252788366     6.666891515    -3.371660818
 C        0.557612560     8.894846042    -2.189879946
 C        1.582270906     8.088948432    -1.863762813
 C        2.868530308     8.548228255    -1.352665636
 C        3.159944278     9.899637043    -1.150612300
 C        4.404126611    10.294683124    -0.659637540
 C        5.385737261     9.344244446    -0.362000944
 C        5.094512731     7.987851138    -0.561274063
 C        3.850272029     7.596127233    -1.046674440
Si        7.032423668     9.849839458     0.286582091
 C        7.320332272    11.680909562     0.076725314
 C        7.138303522     9.421185811     2.138317089
 C        8.370227473     8.863053172    -0.640685805
 C       -5.143322881     5.207891647    -4.231546529
 C       -5.000921290     7.616415750    -6.137057926
 C       -3.120102177    13.628024648     1.099379058
 C       -4.349283822    12.938245873    -1.653864478
 C       -0.657496224    -0.893889872    -1.547346199
 C       -0.610483379    -0.930874585     1.543898117
 H        1.198120357     2.712020637     0.477180300
 H        0.250858202     4.949590099     0.465804080
 H       -3.636224290     3.342892321    -0.451632893
 H       -2.725346348     1.088001113    -0.473710834
 H       -3.436331596     5.656058323    -0.222096668
 H       -0.620846207     6.774495420     0.426503601
 H       -0.434704372     9.090617011     0.648992885
 H       -1.362276594    11.342966050     0.650088569
 H       -5.277393981     9.676444478    -0.290258964
 H       -4.310229489     7.450323920    -0.268454802
 H       -5.750107726    11.683126001     1.930626332
 H       -7.066019674    13.149871713    -0.493321315
 H       -9.357760147    13.456745740    -0.405529112
 H      -11.547951433    13.215558258     0.713656779
 H       -9.629408932    11.167263581     3.991669827
 H       -7.452254141    11.454590237     2.900304339
 H      -13.110302182    11.952401695     4.808942649
 H      -11.464052516    12.605798217     4.959204931
 H      -11.709102893    10.842960189     4.769613546
 H      -13.753889015     9.720647747    -0.127197990
 H      -13.260631719     8.001923235    -0.211088723
 H      -12.944644841     9.105688717    -1.580481139
 H      -11.266241264     6.838899027    -0.578588208
 H       -9.351361977     5.947098971    -1.847765837
 H       -7.710128610     9.917573794    -2.176260524
 H       -9.629193658    10.809145998    -0.871759053
 H       -7.412269745     6.174408135    -2.958728917
 H       -6.143452373     9.008638804    -3.273341279
 H       -3.699150231     9.747534563    -3.685768220
 H       -1.529829663    10.427117995    -2.824606546
 H       -0.253078123     6.318694154    -2.677874701
 H       -2.409169413     5.590875697    -3.495827958
 H        0.641020857     9.979854277    -2.081509455
 H        1.494126950     7.003863551    -1.974098535
 H        2.413906295    10.659380804    -1.377261564
 H        4.575071780    11.366007205    -0.523457274
 H        5.823279926     7.201490066    -0.345714617
 H        3.641757405     6.537712033    -1.193063563
 H      -13.985244629    11.426905476     2.582731253
 H      -12.895888911    11.484563223     1.165883743
 H      -12.510999467     9.409430208     3.427664730
 H      -13.622441872     9.134539057     2.091326995
 H      -10.578922993     9.680390068     1.845569261
 H      -11.376511415     8.083994295     1.712439523
 H        2.263302972    -1.029900479    -0.037392849
 H        2.274559441     0.481932780     0.905290987
 H        2.261354203     0.540727067    -0.878637524
 H        8.326220973    11.969092112     0.431006431
 H        6.584602007    12.278531676     0.642778080
 H        7.246655880    11.973473190    -0.986531473
 H        8.139602833     9.808993817     2.484932027
 C        6.043353268    10.117322022     2.967497945
 C        7.087428533     7.909878544     2.425495378
 H        8.160175106     7.775846941    -0.420896928
 C        8.294956998     9.057544146    -2.165902017
 C        9.801214099     9.171550699    -0.165447485
 H       -6.218737608     5.047280560    -4.540376256
 C       -4.263514737     4.411595803    -5.211624502
 C       -4.969408717     4.624172657    -2.817005880
 H       -4.163047920     7.066936648    -6.657195484
 C       -6.328691450     7.201028193    -6.795322962
 C       -4.786724754     9.123515280    -6.360891310
 H       -2.111654721    13.634634317     0.592718884
 C       -3.690878513    15.056224650     1.038138105
 C       -2.910654438    13.238726140     2.573955033
 H       -4.891859010    13.926273653    -1.612621037
 C       -2.994026377    13.167769214    -2.346081364
 C       -5.185747754    11.967641639    -2.508440728
 H       -1.780935045    -0.913044540    -1.438515328
 C       -0.324672118    -0.140562529    -2.848242943
 C       -0.171290933    -2.348664014    -1.670708221
 H       -0.111316585    -1.942133062     1.506889762
 C       -0.190669432    -0.238109142     2.853403657
 C       -2.133372046    -1.152603618     1.570729927
 H        6.062492961    11.211598642     2.884633348
 H        6.175765188     9.887822717     4.034600722
 H        5.030041109     9.781434695     2.704406387
 H        7.891082484     7.345610515     1.935772149
 H        6.130053855     7.453115892     2.137837014
 H        7.200000600     7.729090076     3.504537558
 H        7.311937515     8.803222815    -2.587652527
 H        9.022154434     8.402193243    -2.666100805
 H        8.534346667    10.081956897    -2.480558928
 H        9.952561610     8.988484473     0.906194619
 H       10.108664877    10.204636965    -0.375158756
 H       10.518543172     8.525073250    -0.691763328
 H       -4.428898464     4.684392866    -6.261880812
 H       -4.491999289     3.338668727    -5.134944763
 H       -3.187530977     4.508744073    -5.012832302
 H       -5.582320526     5.126005468    -2.055674821
 H       -3.926827996     4.652870067    -2.466864809
 H       -5.266979137     3.566326820    -2.807962967
 H       -6.515897575     6.120175989    -6.759457714
 H       -6.322311217     7.473509119    -7.860499129
 H       -7.200725500     7.704761497    -6.354709821
 H       -3.806691536     9.477146261    -6.010507189
 H       -5.561808849     9.743087208    -5.891139738
 H       -4.821555695     9.351336555    -7.436142804
 H       -3.781031388    15.445988027     0.016278571
 H       -3.027152841    15.750229181     1.573618272
 H       -4.676717406    15.144369694     1.516782611
 H       -2.480568131    12.235875234     2.706003520
 H       -3.838537886    13.280534786     3.161370915
 H       -2.211319475    13.938426751     3.053108304
 H       -2.374684908    13.925896387    -1.850129242
 H       -3.150615743    13.527016010    -3.373294747
 H       -2.394975903    12.249411444    -2.428362462
 H       -6.211162573    11.835375462    -2.137220929
 H       -4.729320913    10.968545994    -2.583221022
 H       -5.273937813    12.348562509    -3.535203543
 H       -0.693382956     0.895337427    -2.855702551
 H       -0.796560715    -0.641549414    -3.705343423
 H        0.751718931    -0.110073602    -3.062796078
 H       -0.435967652    -2.970166643    -0.805490320
 H        0.913981594    -2.426184769    -1.818820593
 H       -0.635387615    -2.826515476    -2.545704196
 H        0.895321710    -0.114572540     2.953455313
 H       -0.512436383    -0.837931281     3.716818165
 H       -0.651027424     0.752679545     2.978632172
 H       -2.507844009    -1.714004136     0.705618861
 H       -2.699905619    -0.212866657     1.635140214
 H       -2.411412572    -1.738174129     2.459261954

