187   

Si        0.000000000     0.000000000     0.000000000
 C        1.866260251     0.000000000     0.000000000
 C       -0.672305782     1.712099615     0.000000000
 C        0.145648003     2.808790907     0.288002007
 C       -0.377354326     4.101281322     0.284434089
 C       -1.732377605     4.323636873     0.024313783
 C       -2.552688262     3.222523949    -0.254753040
 C       -2.029231920     1.932865829    -0.272715248
 C       -2.318042050     5.659592022     0.011379543
 C       -1.626992439     6.787678939     0.243664155
 C       -2.193679949     8.130652598     0.235185978
 C       -1.339137194     9.209092229     0.497024826
 C       -1.822917885    10.513849148     0.502487018
 C       -3.163176332    10.775803243     0.192447875
 C       -4.014119949     9.701341225    -0.088400816
 C       -3.534429506     8.392479783    -0.059698633
Si       -3.804955174    12.496164694     0.198673990
 C       -4.780835667    12.913331114    -1.290458095
 C       -4.596678380    12.386744710    -2.509316869
 C       -5.398964867    12.745120295    -3.681926054
 C       -5.128614827    12.138234561    -4.914785015
 C       -5.864596382    12.448807206    -6.051384595
 C       -6.861303413    13.441363291    -6.002982579
 C       -7.132538381    14.055702208    -4.762103079
 C       -6.432221312    13.686970563    -3.623915504
 N       -7.645572208    13.805627092    -7.121678855
 C       -7.254015527    13.216191057    -8.421999735
 C       -7.948486431    15.252545048    -7.179153294
 C       -8.283476389    13.541919304    -9.523252914
 C       -8.429395160    12.389172207   -10.538061237
 N       -9.479995963    11.394335054   -10.221268187
 C       -9.255556363    10.789787360    -8.937016019
 C       -8.388591848     9.687737930    -8.912812998
 C       -8.121471472     9.049559341    -7.709925771
 C       -8.686408642     9.512292512    -6.513344470
 C       -9.552536436    10.608977411    -6.549545785
 C       -9.853081847    11.236006072    -7.752804066
 C      -10.843605597    11.928556342   -10.397601742
 C       -8.375054604     8.805876066    -5.269165953
 C       -8.858942085     9.161388432    -4.072044781
Si       -8.462080865     8.270828346    -2.527758213
 C       -6.783485935     7.530340253    -2.650699745
 C       -5.708771805     8.301789099    -3.109775406
 C       -4.432109150     7.748997764    -3.206452038
 C       -4.210210642     6.409141361    -2.876205967
 C       -5.288449172     5.638227550    -2.422563674
 C       -6.558582108     6.193837516    -2.301957827
 C       -2.902743080     5.771445606    -2.955246332
 C       -1.765629019     6.357276547    -3.365607882
 C       -0.481700298     5.664996608    -3.423435471
 C       -0.340941078     4.325049759    -3.051127723
 C        0.897717102     3.690814929    -3.116991959
 C        2.028883119     4.387997989    -3.552559353
 C        1.894038872     5.733435876    -3.918030391
 C        0.654290261     6.364767436    -3.848372437
Si        3.658598945     3.538855891    -3.634902024
 C        3.446496179     1.691008528    -3.789620245
 C        4.651209508     4.214508986    -5.109530707
 C        4.605582987     3.923862201    -2.028029870
 C       -8.493318026     9.539132751    -1.110016323
 C       -9.781884812     6.944849382    -2.193855440
 C       -4.877304593    12.744570055     1.751626263
 C       -2.364473505    13.743925599     0.275772188
 C       -0.639713259    -0.867524163    -1.570434905
 C       -0.624046788    -0.943432567     1.527225821
 H        1.211062179     2.697029609     0.508659237
 H        0.284912509     4.941263116     0.488106569
 H       -3.611258971     3.374395108    -0.455807865
 H       -2.714543927     1.113302094    -0.504652677
 H       -3.391106838     5.695987003    -0.201531679
 H       -0.552983209     6.747372218     0.451108652
 H       -0.288301019     9.026832465     0.712350890
 H       -1.112879702    11.309260157     0.742984236
 H       -5.068781001     9.847648908    -0.348917821
 H       -4.215717440     7.572016194    -0.286843202
 H       -5.551063107    13.680568242    -1.114836529
 H       -3.833091979    11.625238339    -2.718249550
 H       -4.336239248    11.391594930    -4.986771243
 H       -5.643801312    11.925796446    -6.976667550
 H       -7.921763785    14.797442983    -4.682697216
 H       -6.685191468    14.158332854    -2.673663079
 H       -8.105216942    15.607861020    -8.206748787
 H       -7.152527754    15.877201202    -6.739441666
 H       -8.886049241    15.429704097    -6.620987421
 H      -10.995639102    12.141612649   -11.469636795
 H      -11.062298590    12.842920218    -9.826243857
 H      -11.575434045    11.153925122   -10.109700074
 H       -7.945184086     9.335223416    -9.842017780
 H       -7.457784319     8.185413081    -7.696889552
 H       -9.995078620    10.989651517    -5.628816070
 H      -10.522259091    12.091831386    -7.759871672
 H       -7.689020443     7.959074775    -5.409785984
 H       -9.542607410    10.016326284    -3.958154655
 H       -5.831000943     9.351891730    -3.401695189
 H       -3.604766461     8.369908067    -3.545007225
 H       -5.135473531     4.593086185    -2.162065858
 H       -7.356050575     5.546501125    -1.928353216
 H       -2.894738874     4.718748142    -2.646953649
 H       -1.748416899     7.405129354    -3.672814174
 H       -1.203065220     3.759558940    -2.695198317
 H        0.940762407     2.641020046    -2.810387131
 H        2.743754703     6.327568614    -4.262817936
 H        0.569534606     7.412031981    -4.130391280
 H       -6.241111134    13.544409563    -8.738714815
 H       -7.216631796    12.107141278    -8.275738401
 H       -9.269036765    13.751968459    -9.059696514
 H       -7.992508611    14.464837909   -10.054887660
 H       -8.651326671    12.800244619   -11.547501664
 H       -7.470216748    11.832345261   -10.637957388
 H        2.262584563    -1.030310462    -0.033598710
 H        2.275502354     0.483166135     0.904479971
 H        2.262498328     0.537475640    -0.881203118
 H        4.423330841     1.183461681    -3.874589570
 H        2.859948881     1.437710163    -4.691590141
 H        2.921958035     1.262707007    -2.917142380
 H        4.775113628     5.320559469    -4.920405047
 C        6.057031438     3.600229788    -5.235726448
 C        3.909005405     4.045837493    -6.447749783
 H        5.562545262     3.330443525    -2.080562851
 C        4.972387055     5.411907229    -1.882926817
 C        3.834026134     3.482247870    -0.770499861
 H       -9.580441815     9.798373243    -0.954239261
 C       -7.941626633     8.978087810     0.211394940
 C       -7.747459697    10.834767828    -1.468902402
 H       -9.443474877     6.390176737    -1.271601469
 C      -11.177301973     7.528863761    -1.905772748
 C       -9.903635686     5.933140510    -3.348430094
 H       -5.266476510    13.801694167     1.692848348
 C       -6.085538805    11.794766856     1.808261551
 C       -4.076001699    12.601181733     3.058227384
 H       -1.745943955    13.454771923     1.173334013
 C       -1.465554561    13.679004418    -0.972276483
 C       -2.831860142    15.197444636     0.472298104
 H       -1.762106919    -0.914379557    -1.461759383
 C       -0.324437430    -0.076719829    -2.853421305
 C       -0.121756748    -2.307859291    -1.727928585
 H       -0.132638439    -1.958240761     1.482478624
 C       -0.206637546    -0.269063326     2.847197706
 C       -2.148593730    -1.154945967     1.542779909
 H        6.676711162     3.746004009    -4.341519079
 H        6.600236626     4.073849122    -6.066410031
 H        6.036414583     2.524935950    -5.456828884
 H        2.909064214     4.503231125    -6.450319800
 H        3.791755345     2.994742191    -6.743148199
 H        4.472171292     4.533350034    -7.256078785
 H        5.606523023     5.785708372    -2.696610450
 H        5.540830706     5.571131777    -0.955423263
 H        4.089482622     6.064183828    -1.818028647
 H        3.617515131     2.405938956    -0.749789666
 H        2.881443604     4.019271895    -0.646533271
 H        4.427857752     3.694235415     0.129680345
 H       -8.486365953     8.096301036     0.571613005
 H       -8.023182121     9.734211469     1.005657340
 H       -6.877269426     8.706471678     0.152082219
 H       -8.113679292    11.316413473    -2.387249813
 H       -6.663735397    10.690884329    -1.596416213
 H       -7.870899407    11.577792985    -0.668324346
 H      -11.202752676     8.182684191    -1.024879308
 H      -11.889410942     6.716105928    -1.702064269
 H      -11.589728977     8.091286591    -2.754866708
 H       -8.958253310     5.434992368    -3.601822468
 H      -10.290435632     6.388586260    -4.272163861
 H      -10.609343292     5.135044421    -3.079103165
 H       -6.736157221    11.864991695     0.924972198
 H       -6.714945995    12.035243307     2.676252625
 H       -5.792614720    10.740760030     1.923784559
 H       -3.246144906    13.314142272     3.142899875
 H       -3.663812553    11.591360730     3.198340345
 H       -4.729208861    12.787517363     3.922763928
 H       -1.055894916    12.678870687    -1.168855883
 H       -0.602191394    14.347875180    -0.851289819
 H       -1.984067962    14.005350507    -1.885868692
 H       -3.410814555    15.348405253     1.392267685
 H       -3.432821798    15.570584641    -0.368458765
 H       -1.960927775    15.864658660     0.546140875
 H       -0.737146933     0.942983480    -2.844820608
 H       -0.769399736    -0.578387319    -3.724475288
 H        0.751818998    -0.000916202    -3.059597807
 H       -0.363625308    -2.954057537    -0.874422719
 H        0.963489140    -2.357616106    -1.887743161
 H       -0.583394194    -2.779095231    -2.607813216
 H        0.879647766    -0.153987929     2.954419000
 H       -0.536782257    -0.876956370     3.701764093
 H       -0.661495892     0.722981153     2.982097150
 H       -2.521805562    -1.704385619     0.669425252
 H       -2.709246240    -0.212225484     1.614148428
 H       -2.436129055    -1.748466838     2.423034206

