187   

Si        0.000000000     0.000000000     0.000000000
 C        1.864960620     0.000000000     0.000000000
 C       -0.678220834     1.711588208     0.000000000
 C        0.068017543     2.776624003     0.515569714
 C       -0.449101681     4.071914282     0.513867383
 C       -1.723961461     4.331174501     0.003868967
 C       -2.472961039     3.262223642    -0.505748492
 C       -1.959673399     1.968131078    -0.504970366
 C       -2.307592503     5.668055303    -0.019602874
 C       -1.702850857     6.778771353     0.434998461
 C       -2.294744515     8.112383097     0.407367992
 C       -1.557736025     9.190300256     0.913864505
 C       -2.084238546    10.480537130     0.907208330
 C       -3.356100159    10.723705770     0.378927200
 C       -4.093923364     9.647819514    -0.131341318
 C       -3.569271232     8.357583144    -0.112701627
Si       -4.098181143    12.406064945     0.345274385
 C       -5.024325947    12.664838372    -1.213712891
 C       -4.676358128    12.060185381    -2.357305741
 C       -5.370743371    12.221984513    -3.635972029
 C       -4.879646271    11.516630029    -4.745535344
 C       -5.490648461    11.625793960    -5.983824411
 C       -6.628410264    12.438626466    -6.134668210
 C       -7.119450974    13.151535126    -5.035308631
 C       -6.481155012    13.052802595    -3.801747372
 N       -7.193044226    12.491716214    -7.447939756
 C       -7.926079320    11.251307989    -7.792578459
 C       -7.962850974    13.712790191    -7.742977432
 C       -9.268091158    11.075780521    -7.055858399
 C       -9.500371603     9.645714728    -6.532758476
 N       -8.888389880     9.334357985    -5.225346969
 C       -9.128734338    10.237246986    -4.174257180
 C      -10.351323072    10.941881144    -4.120817835
 C      -10.601432451    11.834028630    -3.091586098
 C       -9.679700365    12.020703303    -2.052198818
 C       -8.488189810    11.291422417    -2.083160430
 C       -8.216335790    10.401987955    -3.114204690
 C       -7.526143005     8.785725024    -5.325825658
 C      -10.004928315    12.978032779    -0.995858630
 C       -9.216408567    13.251907466     0.052114699
Si       -9.662143548    14.457781052     1.352189798
 C      -10.725627775    15.793297342     0.667258423
 C      -10.488916037    16.255859136    -0.633336815
 C      -11.277307769    17.266230906    -1.179945314
 C      -12.311020622    17.845828409    -0.438165794
 C      -12.540752931    17.387021318     0.865101556
 C      -11.756815277    16.374119661     1.413335760
 C      -13.160953164    18.905868943    -0.970291316
 C      -13.045127646    19.432718700    -2.201154826
 C      -13.893815394    20.492636851    -2.735277680
 C      -14.930411286    21.071977124    -1.998956631
 C      -15.717517134    22.083364085    -2.549419936
 C      -15.488538324    22.532871609    -3.853661361
 C      -14.450010945    21.952774692    -4.594662784
 C      -13.662259845    20.947752947    -4.040384418
Si      -16.518942175    23.866790194    -4.593782454
 C      -18.064929093    24.172653905    -3.595836982
 C      -15.507567205    25.477680516    -4.668000313
 C      -16.973818511    23.356790087    -6.370480480
 C      -10.549456171    13.554688658     2.770336664
 C       -8.057793589    15.227130230     2.023752622
 C       -5.316821983    12.551889669     1.797456677
 C       -2.774330232    13.758106049     0.506370819
 C       -0.645675183    -0.923769466    -1.534760341
 C       -0.628123355    -0.907653101     1.550585549
 H        1.071321871     2.635541121     0.927119355
 H        0.153064278     4.884000181     0.917288890
 H       -3.469019482     3.441947779    -0.905866496
 H       -2.592111388     1.174819853    -0.913030662
 H       -3.313490209     5.718790996    -0.447324245
 H       -0.698032272     6.731059169     0.864117731
 H       -0.563075189     9.021249479     1.321929171
 H       -1.465997103    11.280488650     1.323187844
 H       -5.095081443     9.779451979    -0.557765388
 H       -4.163527843     7.537164950    -0.511259810
 H       -5.872310393    13.363137966    -1.161615815
 H       -3.824221827    11.366145475    -2.423171093
 H       -4.000712202    10.880437370    -4.636493867
 H       -5.089556345    11.102109346    -6.849486095
 H       -8.001308403    13.779084552    -5.130903145
 H       -6.875978383    13.616888427    -2.954629977
 H       -8.179446604    13.735697085    -8.825059603
 H       -7.339729653    14.595384344    -7.513792923
 H       -8.914230010    13.803951968    -7.197215983
 H       -7.446212805     8.119004769    -6.198963928
 H       -7.321693717     8.168116817    -4.431434730
 H       -6.744684294     9.562348789    -5.404848347
 H      -11.105085833    10.789632489    -4.887120535
 H      -11.541870026    12.387053246    -3.085445401
 H       -7.749955317    11.416159750    -1.287777415
 H       -7.273618289     9.862304039    -3.102758430
 H      -10.977596265    13.468915973    -1.148552459
 H       -8.250380781    12.744785823     0.194743160
 H       -9.692145526    15.840917523    -1.261114653
 H      -11.078438488    17.604045597    -2.195324527
 H      -13.340344090    17.824791482     1.459559570
 H      -11.982995865    16.057520561     2.435001382
 H      -13.931875301    19.263849986    -0.281685526
 H      -12.273929428    19.074416020    -2.889324971
 H      -15.132313189    20.736826485    -0.983250437
 H      -16.513048702    22.498511121    -1.924420038
 H      -14.225074816    22.263399461    -5.618892511
 H      -12.859311074    20.510638278    -4.630755361
 H       -8.088246381    11.262491484    -8.893197471
 H       -7.252294517    10.389735341    -7.589773674
 H       -9.322589128    11.791434675    -6.207982553
 H      -10.101433823    11.359347964    -7.723858018
 H      -10.597771268     9.464654610    -6.425296974
 H       -9.149985604     8.900073643    -7.279458894
 H        2.262787942    -1.029671821    -0.042090532
 H        2.277020870     0.478973876     0.905244614
 H        2.258909922     0.544988673    -0.877341391
 H      -18.699701295    24.941924768    -4.070794848
 H      -17.830994075    24.519396640    -2.574038076
 H      -18.669115406    23.251251643    -3.509702631
 H      -16.210818265    26.260853707    -5.074532737
 C      -15.030534010    25.939381184    -3.278733166
 C      -14.290004495    25.398045233    -5.606237343
 H      -15.994298153    23.242901453    -6.919979088
 C      -17.704547782    22.003003901    -6.426251092
 C      -17.812065233    24.410172562    -7.116372675
 H      -10.786224358    14.342540326     3.542416718
 C      -11.873451199    12.915283976     2.314890000
 C       -9.683629740    12.476144488     3.446016608
 H       -7.456784797    14.367649834     2.444940450
 C       -7.224978126    15.902041107     0.919156638
 C       -8.297419697    16.237277778     3.158327736
 H       -5.881670439    13.514978311     1.622894798
 C       -6.329346820    11.393938964     1.831411168
 C       -4.629066659    12.647472162     3.169886058
 H       -2.233121454    13.552840857     1.474995834
 C       -1.744698436    13.709070253    -0.636589530
 C       -3.365341581    15.177501470     0.584874889
 H       -1.770847730    -0.929650365    -1.443813860
 C       -0.282088648    -0.210426613    -2.849662096
 C       -0.174577671    -2.387093785    -1.612665953
 H       -0.158946136    -1.933122302     1.518722562
 C       -0.188134827    -0.221671703     2.856831312
 C       -2.157316678    -1.082035598     1.574578917
 H      -15.850755550    26.104236366    -2.568281896
 H      -14.499374857    26.898454803    -3.362206951
 H      -14.324065832    25.236279375    -2.814332639
 H      -14.554913503    25.163701182    -6.644965131
 H      -13.542326850    24.664006728    -5.274030252
 H      -13.773351198    26.368644197    -5.633726942
 H      -17.139009036    21.184795394    -5.957711468
 H      -17.866410802    21.704635097    -7.471831516
 H      -18.696401971    22.030803559    -5.955859968
 H      -17.322000281    25.390314214    -7.180312934
 H      -18.804826562    24.560797352    -6.671942776
 H      -17.986035749    24.085854156    -8.152727548
 H      -12.577029197    13.632765538     1.870738062
 H      -12.392667237    12.467176573     3.173566470
 H      -11.726655304    12.104648674     1.585859655
 H       -8.755263577    12.871150556     3.877923806
 H       -9.420244893    11.653863472     2.765443978
 H      -10.237163542    12.018014894     4.278506743
 H       -6.980695635    15.232307868     0.082674420
 H       -6.265965303    16.249816078     1.329064409
 H       -7.717775034    16.790286366     0.498368285
 H       -8.807136838    15.803625910     4.028098399
 H       -8.876992690    17.114263306     2.836552791
 H       -7.336716938    16.624693269     3.527376710
 H       -6.891599451    11.270016968     0.895608054
 H       -7.076060525    11.569320614     2.619777547
 H       -5.861779796    10.426225371     2.064443445
 H       -3.952757276    13.506760068     3.261551242
 H       -4.057532273    11.744872347     3.427324885
 H       -5.383987079    12.766726871     3.960898644
 H       -1.233611856    12.740664510    -0.725370570
 H       -0.957440140    14.457519932    -0.468716516
 H       -2.184650333    13.939923283    -1.617920647
 H       -4.053353512    15.316751973     1.429054369
 H       -3.893766835    15.471668886    -0.332948346
 H       -2.559214038    15.912611208     0.722358620
 H       -0.631443141     0.831102662    -2.890469486
 H       -0.750547496    -0.725376010    -3.700404821
 H        0.797763222    -0.204063455    -3.049446810
 H       -0.464871379    -2.984408803    -0.738678424
 H        0.912335206    -2.481671488    -1.736600553
 H       -0.626717303    -2.880599607    -2.485292639
 H        0.901146323    -0.133350758     2.957743353
 H       -0.529983992    -0.806755208     3.722764104
 H       -0.617492604     0.783462184     2.976932456
 H       -2.543530197    -1.656010399     0.722776192
 H       -2.696384527    -0.124445910     1.607331112
 H       -2.458630601    -1.633610259     2.477047809

