187   

Si        0.000000000     0.000000000     0.000000000
 C        1.864296826     0.000000000     0.000000000
 C       -0.662504574     1.719308447     0.000000000
 C       -0.026910173     2.704524462    -0.765317127
 C       -0.509469824     4.012131265    -0.781376182
 C       -1.669812629     4.354896138    -0.080861389
 C       -2.309051093     3.367433607     0.679010472
 C       -1.799822589     2.072161441     0.735539805
 C       -2.209073978     5.710685005    -0.070981919
 C       -1.661947203     6.753159228    -0.718976029
 C       -2.197132427     8.110087664    -0.712175717
 C       -1.523308156     9.103465189    -1.433579765
 C       -1.996688014    10.413616818    -1.456567661
 C       -3.168403453    10.756482239    -0.773683754
 C       -3.852008436     9.761172467    -0.063625402
 C       -3.373145572     8.452779827    -0.038120750
Si       -3.841738251    12.472438223    -0.768729303
 C       -5.542978841    12.333913002    -1.418266325
 C       -6.671175721    12.827861393    -0.895387049
 C       -7.987271068    12.648483156    -1.515429590
 C       -9.110418895    13.202490328    -0.893523969
 C      -10.380286917    13.059552130    -1.442724670
 C      -10.550274019    12.354073921    -2.642958143
 C       -9.425379175    11.780192797    -3.264568338
 C       -8.169777237    11.913014409    -2.694975614
 N      -11.812988446    12.160816420    -3.272992047
 C      -12.991647562    12.497081969    -2.448325280
 C      -11.857859042    12.764267574    -4.621578752
 C      -14.276990225    11.860089685    -3.007994929
 C      -14.304620673    10.321853219    -2.875069526
 N      -13.915178138     9.550992879    -4.066384283
 C      -12.562263272     9.171557294    -4.196092381
 C      -11.945323214     8.527197618    -3.101891178
 C      -10.620578407     8.135578019    -3.179751906
 C       -9.875008887     8.330018141    -4.353751613
 C      -10.499554599     8.935093306    -5.445803338
 C      -11.829059388     9.339676286    -5.382822240
 C      -14.615739118     9.942389008    -5.296581219
 C       -8.477853431     7.893950109    -4.373092568
 C       -7.657612588     8.020024668    -5.425367545
Si       -5.914083450     7.465807307    -5.422145019
 C       -5.681129036     6.024686419    -4.299736801
 C       -6.680852232     5.045820070    -4.243113273
 C       -6.542730411     3.940079007    -3.406670465
 C       -5.399501392     3.780251407    -2.618243507
 C       -4.396245697     4.754997162    -2.683719453
 C       -4.532209316     5.862729831    -3.517006214
 C       -5.215421485     2.638363802    -1.729829127
 C       -6.100640027     1.638485343    -1.576735752
 C       -5.911411321     0.498636496    -0.686636844
 C       -4.764285069     0.354552962     0.096571307
 C       -4.605674118    -0.743043801     0.939581725
 C       -5.591998633    -1.731194972     1.010746564
 C       -6.741750563    -1.594579403     0.221753643
 C       -6.897647110    -0.493893583    -0.617545766
Si       -5.376027232    -3.178167121     2.126281774
 C       -4.079209420    -2.836943157     3.424765306
 C       -7.044166738    -3.582738099     2.944418631
 C       -4.822731723    -4.673905015     1.086888024
 C       -5.412638259     6.985033451    -7.190549980
 C       -4.812135650     8.899836632    -4.839920747
 C       -3.762916940    13.223375370     0.972155495
 C       -2.859020264    13.589820910    -1.957004738
 C       -0.631743387    -0.881315842    -1.567125819
 C       -0.662736231    -0.958586071     1.505092469
 H        0.866196819     2.491423777    -1.359236483
 H        0.019492510     4.764367317    -1.363475858
 H       -3.206763007     3.615286891     1.244083348
 H       -2.317791220     1.353913019     1.378996769
 H       -3.122231323     5.837448097     0.518992779
 H       -0.748723198     6.625548916    -1.307513366
 H       -0.614722627     8.854846902    -1.978038717
 H       -1.418300429    11.148124213    -2.022813062
 H       -4.782706535     9.968191323     0.476067547
 H       -3.927116851     7.694947034     0.513695928
 H       -5.569747181    11.768301043    -2.369276714
 H       -6.696969618    13.402864183     0.036983307
 H       -8.995385512    13.762794471     0.033699430
 H      -11.225166045    13.517473603    -0.939255629
 H       -9.556121931    11.187205533    -4.171133083
 H       -7.316065186    11.437814312    -3.182669074
 H      -12.790220777    12.468384088    -5.127937626
 H      -11.027272586    12.367699429    -5.231880528
 H      -11.791122989    13.863241750    -4.609380729
 H      -15.687542553    10.085503114    -5.078565133
 H      -14.539611435     9.117196655    -6.028786841
 H      -14.228820780    10.860663512    -5.766592463
 H      -12.510877094     8.348789117    -2.191482497
 H      -10.151820268     7.662731169    -2.315586420
 H       -9.943741192     9.094599902    -6.369931729
 H      -12.277612309     9.815929660    -6.246684110
 H       -8.156759902     7.439139455    -3.423876863
 H       -7.994356718     8.485774404    -6.362071312
 H       -7.597690511     5.116945259    -4.837807959
 H       -7.336799898     3.196941466    -3.375078697
 H       -3.495039099     4.648000497    -2.078364360
 H       -3.712955361     6.587617649    -3.528631113
 H       -4.270767459     2.641428646    -1.173349190
 H       -7.040683802     1.634441751    -2.134195273
 H       -3.981839730     1.112234823     0.050925482
 H       -3.692424976    -0.791030543     1.540985033
 H       -7.544829456    -2.335858406     0.236129702
 H       -7.797408719    -0.405520694    -1.222634930
 H      -12.817753555    12.102443218    -1.419194840
 H      -13.137774119    13.597170739    -2.358790437
 H      -15.139143338    12.281373354    -2.454347163
 H      -14.430775794    12.163025631    -4.058309471
 H      -13.663268722    10.015160484    -2.017157361
 H      -15.342881620     9.997190752    -2.622386654
 H        2.263868069    -1.029049394     0.033165996
 H        2.259590968     0.538301251     0.880597482
 H        2.276412709     0.487732084    -0.900203296
 H       -3.978492976    -3.690154517     4.118574939
 H       -4.346648363    -1.949520125     4.026611627
 H       -3.086333245    -2.653245671     2.976144847
 H       -7.753686894    -3.823379017     2.099803080
 C       -6.990288863    -4.806659124     3.876042447
 C       -7.625411087    -2.386725994     3.720293616
 H       -4.642740946    -5.509405508     1.822948257
 C       -5.887703960    -5.145009736     0.080605507
 C       -3.508860457    -4.413426257     0.327332022
 H       -5.539508739     7.915145427    -7.815699602
 C       -3.945602460     6.532584187    -7.299341980
 C       -6.317793266     5.887366497    -7.778508772
 H       -3.748189364     8.547204198    -4.970438597
 C       -4.990284454    10.191201195    -5.658384695
 C       -5.029965533     9.221879527    -3.353271617
 H       -4.254723591    14.236570487     0.888491392
 C       -4.532994898    12.409748655     2.027947562
 C       -2.320222324    13.431749943     1.468397841
 H       -1.776920199    13.489744336    -1.654564644
 C       -2.990798877    13.155895233    -3.429269529
 C       -3.247194894    15.075503335    -1.848542947
 H       -0.168242714    -1.909482030    -1.543877822
 C       -2.160101524    -1.045511148    -1.609800872
 C       -0.179108138    -0.181942490    -2.862064428
 H       -1.789841885    -0.915264824     1.426755698
 C       -0.254585393    -2.442943128     1.512534958
 C       -0.256483554    -0.324787098     2.847456297
 H       -6.650455022    -5.721312070     3.373253147
 H       -7.995127071    -5.025974156     4.265713847
 H       -6.349109670    -4.649173751     4.753458775
 H       -7.744657425    -1.485308886     3.102143417
 H       -7.023505046    -2.109684236     4.595890616
 H       -8.627391998    -2.633807016     4.099217926
 H       -6.832835857    -5.441828787     0.552484830
 H       -5.526432439    -6.030363471    -0.462469551
 H       -6.116451397    -4.389234879    -0.684388232
 H       -2.674838577    -4.127489580     0.981831792
 H       -3.610768556    -3.635701919    -0.444014489
 H       -3.190015263    -5.325689634    -0.196529836
 H       -3.228052869     7.300547059    -6.983505909
 H       -3.701181117     6.294966033    -8.344438770
 H       -3.735426900     5.621318154    -6.720676232
 H       -7.382659700     6.156703237    -7.784630823
 H       -6.220911571     4.927549405    -7.250607444
 H       -6.042865738     5.691344926    -8.824327225
 H       -4.763946320    10.065152424    -6.723901228
 H       -4.303919898    10.966518142    -5.287062178
 H       -6.003096084    10.610557344    -5.578245935
 H       -4.899511479     8.360460134    -2.681819044
 H       -6.023037668     9.643358683    -3.144250227
 H       -4.283398423     9.959090074    -3.025142222
 H       -5.580445461    12.217905035     1.758755765
 H       -4.555249419    12.957323235     2.980952914
 H       -4.061066969    11.440647244     2.243918631
 H       -1.722273167    14.081416907     0.816457247
 H       -1.769974632    12.488150032     1.592738603
 H       -2.328054206    13.913312179     2.456971219
 H       -2.738892280    12.101633686    -3.606182599
 H       -2.307191243    13.744875390    -4.056971184
 H       -4.000392615    13.325975499    -3.830432450
 H       -3.082348599    15.497536621    -0.848951102
 H       -4.294636464    15.266115219    -2.122547037
 H       -2.635873454    15.675459964    -2.537877231
 H       -2.572065649    -1.588011228    -0.748026281
 H       -2.454549331    -1.620098642    -2.499755769
 H       -2.693902644    -0.086040933    -1.680433126
 H        0.909887813    -0.091936221    -2.954916763
 H       -0.611700990     0.822873739    -2.977037014
 H       -0.513848433    -0.759213381    -3.736324917
 H       -0.581467420    -2.987326869     0.616304138
 H       -0.714774990    -2.955681818     2.369915302
 H        0.828415748    -2.589955364     1.614607973
 H       -0.544351818     0.731596360     2.939595257
 H        0.822876732    -0.386750786     3.039668595
 H       -0.747547506    -0.851604872     3.678113383

