187   

Si        0.000000000     0.000000000     0.000000000
 C        1.865352000     0.000000000     0.000000000
 C       -0.681876058     1.709901045     0.000000000
 C        0.136934834     2.816842921    -0.243711995
 C       -0.394420042     4.106640160    -0.240422846
 C       -1.754813354     4.318250439    -0.002730273
 C       -2.574796118     3.207412510     0.237937626
 C       -2.046723542     1.919566084     0.240498235
 C       -2.355422648     5.647904959     0.010501621
 C       -1.685526809     6.793813471    -0.199283319
 C       -2.289916785     8.121898048    -0.185230760
 C       -1.474819380     9.236873459    -0.419766609
 C       -2.008191847    10.523567837    -0.415871475
 C       -3.370508101    10.726122784    -0.165470692
 C       -4.186885119     9.613543507     0.068973193
 C       -3.652031460     8.326541076     0.053242696
Si       -4.101359143    12.413505340    -0.154230669
 C       -5.496827124    12.546204588     1.021562912
 C       -5.600023591    11.827941186     2.147592402
 C       -6.715939701    11.932405951     3.090197444
 C       -6.705710958    11.122186370     4.236499606
 C       -7.736470002    11.182110682     5.159362249
 C       -8.799724489    12.089270345     4.976062637
 C       -8.816066086    12.897412639     3.830135086
 C       -7.793205029    12.798746108     2.892391859
 N       -9.821640366    12.097577113     5.959637057
 C       -9.381152278    12.481798696     7.315923426
 C      -11.097390499    12.709159512     5.557637884
 C       -9.342321321    13.989185011     7.622327609
 C       -8.259050865    14.771222194     6.856120507
 N       -6.882828994    14.599899807     7.348662617
 C       -6.649950944    14.775831580     8.718395127
 C       -7.368509756    15.766220176     9.425407682
 C       -7.152421473    15.955419829    10.779891021
 C       -6.189802210    15.207353340    11.473687313
 C       -5.459532513    14.248856651    10.766162632
 C       -5.672956866    14.034028704     9.411014995
 C       -6.105792009    13.567906165     6.651248299
 C       -6.003848037    15.449242190    12.904705730
 C       -5.117306199    14.797944499    13.670040322
Si       -4.884995849    15.100097139    15.457673066
 C       -5.264227527    16.840981468    15.916006265
 C       -4.997969253    17.872528113    15.005670968
 C       -5.278802025    19.195373449    15.336289472
 C       -5.818116064    19.523068893    16.587344562
 C       -6.074017432    18.493059763    17.496528615
 C       -5.798764517    17.166326304    17.166661503
 C       -6.095263452    20.923946844    16.887062206
 C       -6.615104562    21.371215855    18.042713309
 C       -6.892252103    22.772081164    18.342434769
 C       -6.636646409    23.802325248    17.433913317
 C       -6.917191977    25.128621238    17.762282033
 C       -7.454042609    25.453970185    19.011773282
 C       -7.710388370    24.422256524    19.925222473
 C       -7.434875956    23.098937354    19.592601761
Si       -7.830060326    27.199019796    19.461039223
 C       -7.075265403    28.398090961    18.247475876
 C       -9.715672125    27.458452083    19.482400837
 C       -7.154686626    27.522201194    21.211210044
 C       -5.996588139    13.904559685    16.434717009
 C       -3.068561845    14.738489467    15.893681727
 C       -2.784387937    13.699828322     0.325516409
 C       -4.744011597    12.813641116    -1.898781827
 C       -0.607257070    -0.926520811    -1.547979395
 C       -0.657657582    -0.901478493     1.542217914
 H        1.207908421     2.714038268    -0.438977935
 H        0.265271235     4.951955987    -0.427491092
 H       -3.637309412     3.350266047     0.425994226
 H       -2.734430202     1.092334822     0.438121471
 H       -3.431312944     5.661058005     0.209380033
 H       -0.610160250     6.781750714    -0.398799050
 H       -0.412093148     9.099486335    -0.609737981
 H       -1.324200191    11.353905339    -0.611155108
 H       -5.259949504     9.711930432     0.266157940
 H       -4.308730108     7.477183398     0.233177004
 H       -6.259988636    13.289380633     0.744812289
 H       -4.845436318    11.088133240     2.451354403
 H       -5.883610934    10.422966060     4.396089837
 H       -7.740217280    10.519832021     6.023101347
 H       -9.626654314    13.599354847     3.659649402
 H       -7.832683269    13.424051592     1.999626600
 H      -11.851083819    12.505691856     6.338587802
 H      -11.452236574    12.225679184     4.629773107
 H      -11.051867847    13.796659795     5.391630739
 H       -6.347653005    13.575166948     5.571914668
 H       -6.282028661    12.547891809     7.029883431
 H       -5.028877017    13.803276694     6.737244121
 H       -8.093210651    16.386371518     8.906679478
 H       -7.731923382    16.711833282    11.311128613
 H       -4.704346267    13.653700198    11.281759667
 H       -5.087214938    13.276460704     8.901141446
 H       -6.664960629    16.234154935    13.299415122
 H       -4.473186626    14.009970020    13.251796737
 H       -4.571849271    17.676222598    14.015621066
 H       -5.073303860    19.982286958    14.612891524
 H       -6.492198861    18.720065773    18.475244300
 H       -6.020684895    16.404979167    17.919260643
 H       -5.845039847    21.621758535    16.082452364
 H       -6.865135298    20.673292683    18.847077001
 H       -6.214832420    23.576341489    16.456272027
 H       -6.697613050    25.890556780    17.009253333
 H       -8.128542376    24.616772420    20.916932546
 H       -7.642536530    22.311368608    20.314446008
 H      -10.084902982    11.984502657     8.026501177
 H       -8.380680551    12.036172292     7.513710077
 H      -10.328708756    14.444038340     7.414452552
 H       -9.190274813    14.117590056     8.715366364
 H       -8.288925059    14.505040406     5.774715381
 H       -8.492099740    15.862667777     6.901968163
 H        2.262150404    -1.030332488     0.038932910
 H        2.262107893     0.541382409     0.878007608
 H        2.275142095     0.479970624    -0.905906606
 H       -7.270423653    29.443126276    18.547761058
 H       -7.482760673    28.262880846    17.230380862
 H       -5.979137377    28.268129838    18.192182214
 H       -9.869650555    28.553232683    19.708415676
 C      -10.368407561    27.155619058    18.121211598
 C      -10.439719388    26.642721235    20.568416372
 H       -7.689070201    26.793865804    21.888226633
 C       -5.644481324    27.244295897    21.320100608
 C       -7.442134685    28.943178034    21.727811366
 H       -5.776134195    14.090891346    17.525307184
 C       -7.493464667    14.172096947    16.195442195
 C       -5.701166380    12.423277344    16.138208429
 H       -2.886940511    13.663088893    15.605378989
 C       -2.091356728    15.619259077    15.094555752
 C       -2.765262506    14.889181395    17.394543787
 H       -1.975375561    13.627187097    -0.457493737
 C       -3.318759219    15.143214146     0.322660335
 C       -2.153316257    13.404236210     1.697880063
 H       -5.168522782    13.857435182    -1.844202549
 C       -3.637103836    12.802404115    -2.967173966
 C       -5.871232809    11.860995525    -2.335793738
 H       -0.101774882    -1.934955747    -1.516197495
 C       -2.128592981    -1.158030381    -1.574719324
 C       -0.192501226    -0.225926967    -2.854915704
 H       -1.782489446    -0.896900386     1.446389576
 C       -0.199006677    -2.367349228     1.639114084
 C       -0.294046044    -0.174282876     2.849464846
 H       -9.963465898    27.758873143    17.298546635
 H      -11.444825056    27.375773909    18.162240192
 H      -10.281690148    26.098249018    17.832189118
 H      -10.092389805    26.865720574    21.585151846
 H      -10.357680344    25.557733185    20.413183229
 H      -11.515309441    26.872142752    20.555099250
 H       -5.368695001    26.223051924    21.020216815
 H       -5.314338065    27.357487675    22.362589773
 H       -5.035934451    27.938933528    20.726068519
 H       -8.511454977    29.189950830    21.749621560
 H       -6.930759187    29.721953196    21.146656965
 H       -7.082125588    29.046059816    22.761951551
 H       -7.799394343    15.197693649    16.444513364
 H       -8.101740553    13.507571650    16.824685123
 H       -7.800278665    13.980093119    15.156956227
 H       -4.667101864    12.131629195    16.361510226
 H       -5.910370546    12.146726139    15.095307009
 H       -6.341572455    11.781120621    16.759862382
 H       -2.208320249    15.524455470    14.006236843
 H       -1.054486128    15.332264077    15.319599041
 H       -2.175740324    16.686520482    15.345499967
 H       -3.358963824    14.218696529    18.028686812
 H       -2.914149138    15.915225488    17.760591872
 H       -1.711465517    14.644497795    17.591715060
 H       -3.718674696    15.458681473    -0.649348230
 H       -2.505584392    15.844447498     0.560827524
 H       -4.098947956    15.312039712     1.078124682
 H       -1.695470980    12.407454220     1.763224242
 H       -2.871474790    13.492569980     2.526175267
 H       -1.350726066    14.125503399     1.907555395
 H       -2.837033823    13.528455037    -2.774330681
 H       -4.058795384    13.064650972    -3.948464122
 H       -3.170365146    11.814376754    -3.090008739
 H       -6.730716925    11.857586570    -1.651783553
 H       -5.532248401    10.820828003    -2.447984188
 H       -6.260619525    12.163449525    -3.318372290
 H       -2.498644466    -1.726725828    -0.712344897
 H       -2.403338924    -1.740811022    -2.466146120
 H       -2.701789052    -0.222159967    -1.634128449
 H        0.892516367    -0.093753348    -2.954586324
 H       -0.660399012     0.761585829    -2.977032067
 H       -0.509360773    -0.825276332    -3.720476612
 H       -0.484144831    -2.971006944     0.767844849
 H       -0.664307380    -2.848881335     2.511582702
 H        0.885817143    -2.468603097     1.775644972
 H       -0.642159299     0.868206358     2.877331900
 H        0.785161188    -0.168130019     3.051834574
 H       -0.766273015    -0.678194480     3.704863448

