187   

Si        0.000000000     0.000000000     0.000000000
 C        1.865225834     0.000000000     0.000000000
 C       -0.682282248     1.709542701     0.000000000
 C        0.119222083     2.808912742     0.323270563
 C       -0.410969253     4.099150052     0.319294459
 C       -1.752656960     4.319198224    -0.002606940
 C       -2.555532956     3.215980674    -0.322502320
 C       -2.029282525     1.927365678    -0.320151286
 C       -2.351897591     5.649371640    -0.020219425
 C       -1.699058548     6.789093072     0.264096373
 C       -2.303848951     8.117070263     0.244834239
 C       -1.507813797     9.225758799     0.562733095
 C       -2.042356570    10.511518583     0.557181347
 C       -3.391059591    10.717153371     0.240761885
 C       -4.188009305     9.612459513    -0.077053837
 C       -3.647140752     8.327301755    -0.078494976
Si       -4.107923200    12.411601669     0.230345051
 C       -5.928537167    12.309247350     0.344508094
 C       -6.803454890    12.934034246    -0.454466952
 C       -8.256963835    12.822024747    -0.324945364
 C       -9.075051478    13.524389093    -1.221716854
 C      -10.455622131    13.452227098    -1.142055610
 C      -11.074294307    12.699916262    -0.118120389
 C      -10.252947971    11.994040590     0.783403219
 C       -8.871083251    12.043173030     0.659870469
 N      -12.470306309    12.636668493    -0.050911688
 C      -13.241535801    13.819651040    -0.461771686
 C      -13.069505920    11.862618102     1.042858597
 C      -12.834440433    15.144577883     0.209685900
 C      -13.341008963    15.314709936     1.653026442
 N      -14.804283544    15.410799021     1.830139936
 C      -15.473063966    14.168028028     1.969907051
 C      -15.132400151    13.375856688     3.085335901
 C      -15.747071455    12.150824836     3.282741793
 C      -16.737570935    11.689928876     2.401653257
 C      -17.092402452    12.492763861     1.315274423
 C      -16.482359929    13.724777150     1.102950367
 C      -15.443904738    16.392466955     0.941477125
 C      -17.355162789    10.386510764     2.657506224
 C      -18.307543164     9.845156907     1.888147106
Si      -19.111237962     8.225550531     2.160408038
 C      -20.938683686     8.411170348     2.085802856
 C      -21.533215138     9.662573002     2.277873756
 C      -22.919528085     9.802796884     2.221170835
 C      -23.740115160     8.697043376     1.982641010
 C      -23.141603820     7.443496680     1.796879117
 C      -21.757692576     7.300110227     1.848468243
 C      -25.194358493     8.795523740     1.914777430
 C      -25.893600943     9.931949767     2.074004248
 C      -27.348049231    10.028155937     2.005728023
 C      -28.165861920     8.921697417     1.762887496
 C      -29.552797018     9.058518584     1.705722230
 C      -30.153014011    10.306858707     1.897182203
 C      -29.334874114    11.418300730     2.141829661
 C      -27.950745228    11.279518011     2.192801062
Si      -31.981948826    10.504004289     1.824839169
 C      -32.852059911     8.854400189     1.862162588
 C      -32.525595267    11.568581218     3.306295863
 C      -32.459376829    11.409501146     0.220006332
 C      -18.534751042     7.039431833     0.788604273
 C      -18.627756986     7.490416755     3.845978607
 C       -3.458317854    13.381194232     1.733517813
 C       -3.565845266    13.307690667    -1.356986548
 C       -0.652244520    -0.906039502    -1.542289233
 C       -0.615627266    -0.922950271     1.546795730
 H        1.175828100     2.699450141     0.582583687
 H        0.234632197     4.938258206     0.571942528
 H       -3.603424575     3.365378348    -0.576047417
 H       -2.704102684     1.106323223    -0.578186939
 H       -3.411992307     5.668832615    -0.290668864
 H       -0.639436492     6.771714503     0.534515728
 H       -0.459278748     9.083351979     0.816311811
 H       -1.373678205    11.338498965     0.810874662
 H       -5.247264537     9.715798831    -0.335568129
 H       -4.286203813     7.483761599    -0.333125216
 H       -6.274749568    11.668317673     1.172602614
 H       -6.492731941    13.584883320    -1.282203013
 H       -8.619064206    14.129061881    -2.006338065
 H      -11.061394154    13.974787176    -1.875881779
 H      -10.687463021    11.402162183     1.582142303
 H       -8.258423384    11.473617229     1.361032341
 H      -14.169686832    11.834989031     0.930097196
 H      -12.842254300    12.263715710     2.044102980
 H      -12.719062153    10.815706401     0.985252237
 H      -14.917322322    17.358093688     1.039256799
 H      -16.484787179    16.555118305     1.274924675
 H      -15.455596437    16.107714252    -0.122065670
 H      -14.391881850    13.739903975     3.795117332
 H      -15.467823064    11.545303862     4.145596335
 H      -17.863283368    12.158378274     0.619089316
 H      -16.786075592    14.327393223     0.252161221
 H      -16.961744306     9.890693447     3.554456909
 H      -18.676751371    10.366657193     0.988747152
 H      -20.941349765    10.562629885     2.473886158
 H      -23.359405312    10.787494991     2.368774055
 H      -23.763306978     6.570024364     1.610160296
 H      -21.347013340     6.298416534     1.694750933
 H      -25.707739631     7.849671687     1.718199696
 H      -25.381045576    10.878169155     2.271142396
 H      -27.724286739     7.937923804     1.614652517
 H      -30.139793906     8.156662880     1.511224207
 H      -29.748210062    12.418464667     2.300049986
 H      -27.331906892    12.154538806     2.382703875
 H      -13.130411833    13.918722111    -1.569000831
 H      -14.323682099    13.618947157    -0.289069420
 H      -11.727078161    15.232542370     0.217517769
 H      -13.185521938    15.986782233    -0.415454612
 H      -12.950428195    14.484316758     2.282842996
 H      -12.911585516    16.253313200     2.079915054
 H        2.262807871    -1.029691175    -0.044043830
 H        2.275441035     0.476287826     0.907634812
 H        2.260622375     0.546263275    -0.875699209
 H      -33.949220770     8.983315012     1.865933534
 H      -32.582234088     8.284452759     2.769790232
 H      -32.593289731     8.235138675     0.985531331
 H      -31.995937909    12.558322542     3.186719765
 C      -34.039129374    11.845346369     3.340761806
 C      -32.095047186    10.964377883     4.655110981
 H      -33.587431458    11.436193907     0.209987823
 C      -31.948089332    12.859618327     0.152318580
 C      -31.988532573    10.661699758    -1.040908827
 H      -19.016018966     6.044306345     1.015359918
 C      -18.999611528     7.484157049    -0.609408845
 C      -17.009356455     6.838256127     0.770439374
 H      -17.499598922     7.491538023     3.872993093
 C      -19.138516054     8.339831111     5.024171857
 C      -19.105839012     6.040306985     4.039349331
 H       -2.339000473    13.441550664     1.605272203
 C       -4.007735977    14.816691156     1.806571541
 C       -3.745573670    12.664741118     3.065102705
 H       -4.112782505    14.294774343    -1.357377867
 C       -2.055753384    13.601522574    -1.408548228
 C       -3.962272231    12.537350961    -2.629756366
 H       -1.776943318    -0.911857745    -1.445540067
 C       -0.296223825    -0.175209329    -2.849551559
 C       -0.181232714    -2.367976515    -1.640562322
 H       -0.124943560    -1.938342856     1.511909697
 C       -0.190240147    -0.231635910     2.855184240
 C       -2.140458340    -1.131235194     1.572388316
 H      -34.411333398    12.341855866     2.435336814
 H      -34.278871769    12.515676628     4.179092145
 H      -34.637149204    10.937279573     3.494117705
 H      -31.011698318    10.790983310     4.726812841
 H      -32.597431258    10.014307697     4.880186968
 H      -32.350628852    11.651146993     5.474679807
 H      -32.307579617    13.487867586     0.977067236
 H      -32.300252271    13.338482428    -0.773093013
 H      -30.851124306    12.924594069     0.130872557
 H      -32.377663664     9.637935839    -1.112562245
 H      -30.893229423    10.607482540    -1.121053866
 H      -32.337066406    11.186145192    -1.942201351
 H      -20.088525186     7.613482584    -0.686172950
 H      -18.728428001     6.723774894    -1.355804082
 H      -18.529642851     8.420569331    -0.939697262
 H      -16.611358285     6.437820614     1.711669806
 H      -16.457869597     7.761551730     0.541350393
 H      -16.734863429     6.114942533    -0.010927168
 H      -18.809005352     9.387096596     4.988384445
 H      -18.765975826     7.930867316     5.973931482
 H      -20.235693637     8.344582662     5.100940145
 H      -18.702977210     5.344633658     3.292380629
 H      -20.200984830     5.945823777     4.032346669
 H      -18.774211684     5.663304571     5.017988728
 H       -3.765572147    15.420837376     0.922816450
 H       -3.572618414    15.343178033     2.667951810
 H       -5.098066910    14.850705663     1.943959851
 H       -3.345080562    11.641832687     3.104384774
 H       -4.817555036    12.610935477     3.299502259
 H       -3.275221525    13.210178611     3.895532121
 H       -1.706177653    14.234318328    -0.583030763
 H       -1.810271163    14.142608142    -2.333996776
 H       -1.442552575    12.689372997    -1.417614486
 H       -5.037153158    12.319601184    -2.695609249
 H       -3.428393341    11.581357423    -2.731977819
 H       -3.710912276    13.127132939    -3.522288479
 H       -0.652263904     0.864726223    -2.875956608
 H       -0.765379358    -0.681929882    -3.704863598
 H        0.782688048    -0.160326017    -3.053095402
 H       -0.463520822    -2.975299097    -0.770927084
 H        0.904662482    -2.460159022    -1.774793602
 H       -0.640435696    -2.851840407    -2.514910527
 H        0.896652920    -0.116052257     2.954705784
 H       -0.515888946    -0.828331051     3.719327013
 H       -0.643591508     0.762372003     2.979653242
 H       -2.517764717    -1.696812939     0.711103750
 H       -2.699353494    -0.186273414     1.627073960
 H       -2.425671755    -1.706886731     2.465043677

