187   

Si        0.000000000     0.000000000     0.000000000
 C        1.865322797     0.000000000     0.000000000
 C       -0.660479276     1.719049492     0.000000000
 C        0.071263383     2.754326379     0.592489544
 C       -0.421059738     4.058780374     0.597139007
 C       -1.657333423     4.357798396     0.017957167
 C       -2.392416026     3.318944930    -0.567705295
 C       -1.903373673     2.015035234    -0.573724970
 C       -2.210985035     5.707755697    -0.000037184
 C       -1.608762014     6.788169544     0.525474803
 C       -2.161684494     8.138354744     0.507902289
 C       -1.424459019     9.175932539     1.094640250
 C       -1.911225350    10.480538354     1.102189940
 C       -3.153012436    10.775766447     0.526754697
 C       -3.891121380     9.742624510    -0.060561241
 C       -3.396962230     8.438920575    -0.072306436
Si       -3.808723935    12.494374992     0.529317779
 C       -5.608626078    12.434637356     0.215748598
 C       -6.276950625    13.156215497    -0.692617561
 C       -7.724527751    13.064247686    -0.898037941
 C       -8.321330718    13.869616664    -1.880634634
 C       -9.686252834    13.817464687    -2.111129141
 C      -10.492548245    12.926509315    -1.376371154
 C       -9.902806853    12.124362016    -0.390436919
 C       -8.536203866    12.212430751    -0.145743705
 N      -11.887962717    12.923689364    -1.663144249
 C      -12.194960229    12.425798933    -3.025734434
 C      -12.741297775    12.299041697    -0.635846275
 C      -11.605803756    11.039856085    -3.348728429
 C      -10.312908500    11.147819003    -4.183849681
 N       -9.401969991    10.000305718    -4.023926775
 C       -9.932757791     8.726704393    -4.293792058
 C      -10.842689862     8.566311185    -5.361748671
 C      -11.377635807     7.320956232    -5.645165693
 C      -10.996995098     6.183849954    -4.917139175
 C      -10.073185699     6.339882531    -3.880693598
 C       -9.539600350     7.584516188    -3.571280242
 C       -8.515716923    10.123620392    -2.855892015
 C      -11.594444830     4.892261725    -5.259498340
 C      -11.308097638     3.742286355    -4.635189650
Si      -12.024423078     2.107081575    -5.023132038
 C      -12.642219237     1.311263749    -3.483863438
 C      -12.897692277     2.077877974    -2.342123328
 C      -13.365983798     1.474470881    -1.175433151
 C      -13.598420029     0.097289412    -1.127182284
 C      -13.347379109    -0.667238725    -2.274500833
 C      -12.875913007    -0.069035453    -3.439994118
 C      -14.087866849    -0.577065152     0.070694087
 C      -14.367478111     0.035298971     1.233799791
 C      -14.856892785    -0.639936909     2.431153258
 C      -15.085209012    -2.017497488     2.479776131
 C      -15.553751934    -2.622353094     3.646024212
 C      -15.811326595    -1.859181895     4.789106100
 C      -15.584176320    -0.476912115     4.742758858
 C      -15.110874563     0.122853885     3.579140970
Si      -16.429926289    -2.642044081     6.336055074
 C      -16.988312012    -4.397296017     6.040924443
 C      -15.044267944    -2.653513236     7.641232164
 C      -17.875767681    -1.594119499     6.995820969
 C      -13.457124923     2.261898487    -6.264069238
 C      -10.665532065     1.018312279    -5.791483890
 C       -3.508796767    13.292914681     2.228462363
 C       -2.910814496    13.514222725    -0.799684093
 C       -0.648057216    -0.924289198    -1.532970474
 C       -0.635235230    -0.901570909     1.550758261
 H        1.044479196     2.582343492     1.060850682
 H        0.170339634     4.846865423     1.059688202
 H       -3.358181025     3.529600458    -1.023494109
 H       -2.523200708     1.246170844    -1.043220675
 H       -3.186572807     5.795666361    -0.487264800
 H       -0.633016007     6.699937202     1.012121037
 H       -0.459135356     8.962568018     1.549724597
 H       -1.292031720    11.249206870     1.572616498
 H       -4.865097633     9.917632575    -0.529417986
 H       -3.986982799     7.652180311    -0.539309534
 H       -6.136629899    11.727816270     0.879324247
 H       -5.787427538    13.875453048    -1.361282199
 H       -7.705937507    14.554297027    -2.464676715
 H      -10.145690920    14.471138625    -2.849941370
 H      -10.502386139    11.430041231     0.191337567
 H       -8.099076696    11.592632272     0.638947435
 H      -13.793412986    12.555361260    -0.853371603
 H      -12.503904606    12.730933358     0.352024746
 H      -12.656555937    11.203037185    -0.575639249
 H       -8.116746675    11.153859425    -2.796279452
 H       -7.646817187     9.453078956    -2.981979652
 H       -9.012532811     9.901630321    -1.897605596
 H      -11.129178776     9.422198315    -5.965892264
 H      -12.095078741     7.223452847    -6.460373644
 H       -9.759065453     5.472008108    -3.298406446
 H       -8.828046128     7.661375512    -2.755112988
 H      -12.312835782     4.956099505    -6.087336403
 H      -10.573346061     3.711398055    -3.813142516
 H      -12.738366114     3.161070934    -2.323002017
 H      -13.552922910     2.090665176    -0.297917331
 H      -13.521871867    -1.741197617    -2.257286799
 H      -12.696222574    -0.715386673    -4.303367978
 H      -14.221047719    -1.657705836    -0.035197032
 H      -14.234789903     1.116018921     1.339768049
 H      -14.897102070    -2.633492934     1.602344472
 H      -15.711740332    -3.704125278     3.623345121
 H      -15.768710736     0.169995527     5.605088796
 H      -14.938857846     1.197425471     3.563030866
 H      -13.301419712    12.408972651    -3.141502018
 H      -11.830025576    13.188640007    -3.749674183
 H      -11.401825752    10.484058110    -2.413092364
 H      -12.346848953    10.421559927    -3.888196585
 H      -10.557874099    11.250147111    -5.265036575
 H       -9.751862978    12.073115027    -3.914405741
 H        2.263856458    -1.028284193    -0.062840691
 H        2.277904348     0.461325008     0.913932688
 H        2.258083260     0.562639377    -0.866757659
 H      -17.400967592    -4.844063887     6.963098508
 H      -16.156786726    -5.040404641     5.703457916
 H      -17.779859611    -4.436824080     5.270691481
 H      -15.470544525    -3.198385973     8.532619356
 C      -13.794928998    -3.418249760     7.166683439
 C      -14.616369985    -1.248670577     8.101941335
 H      -17.449104202    -0.567654367     7.192615944
 C      -19.010534812    -1.442544626     5.966705113
 C      -18.463684272    -2.121283654     8.316784786
 H      -13.046790038     2.845578709    -7.138600704
 C      -13.960441128     0.906791463    -6.792408019
 C      -14.652873405     3.040145801    -5.684758943
 H      -11.159844366     0.035941928    -6.043643682
 C      -10.085078775     1.607085152    -7.089115377
 C       -9.514622807     0.731884795    -4.810411576
 H       -2.388586451    13.323334502     2.363030639
 C       -4.038935950    14.734448114     2.318761003
 C       -4.102684072    12.465326407     3.382186735
 H       -3.428525915    14.516775460    -0.824452127
 C       -1.424100114    13.755660860    -0.483454629
 C       -3.021756763    12.880775054    -2.198711372
 H       -1.773862938    -0.913709362    -1.449711947
 C       -0.264808560    -0.225692387    -2.850207167
 C       -0.197109908    -2.394673595    -1.597876980
 H       -0.176873071    -1.931873539     1.518452095
 C       -0.188455600    -0.220713205     2.857390337
 C       -2.166244391    -1.059860490     1.574259544
 H      -13.998252656    -4.462876167     6.898252725
 H      -13.043966157    -3.448191490     7.969216950
 H      -13.304849194    -2.942704127     6.304801306
 H      -15.438814228    -0.659166530     8.526382219
 H      -14.156854286    -0.657845568     7.297002886
 H      -13.856976061    -1.328730002     8.893545948
 H      -18.674821518    -1.015905914     5.010546506
 H      -19.781601527    -0.760773005     6.352925641
 H      -19.518981673    -2.390247403     5.745369534
 H      -17.724641715    -2.187773857     9.125691180
 H      -18.935196662    -3.107427045     8.212504412
 H      -19.250579212    -1.441507459     8.674914071
 H      -13.186859357     0.326298896    -7.310857976
 H      -14.765709183     1.065235938    -7.524467086
 H      -14.387118492     0.271381345    -6.003652339
 H      -14.389354368     4.040556804    -5.314987157
 H      -15.148038431     2.506684264    -4.860481806
 H      -15.418237118     3.188236331    -6.459245092
 H      -10.837834372     1.759338128    -7.873204677
 H       -9.335443410     0.922722613    -7.511146934
 H       -9.571091919     2.566367971    -6.931056294
 H       -9.848425057     0.269668507    -3.870746735
 H       -8.938471536     1.631073529    -4.552300402
 H       -8.801482439     0.027746130    -5.261945340
 H       -3.594116337    15.409756559     1.576490292
 H       -3.801582210    15.161760831     3.303735797
 H       -5.131442611    14.796762353     2.212710465
 H       -3.738673115    11.428376510     3.407332627
 H       -5.200559892    12.431992577     3.365149345
 H       -3.823310088    12.910990424     4.347738958
 H       -1.260084933    14.294663226     0.458322842
 H       -0.968242588    14.372487618    -1.271913072
 H       -0.837532788    12.826712617    -0.447291087
 H       -4.056741776    12.709699217    -2.524811081
 H       -2.491913988    11.919835190    -2.273771332
 H       -2.566103324    13.541597823    -2.949529411
 H       -0.597208919     0.820937406    -2.900977504
 H       -0.735486664    -0.739250087    -3.700617080
 H        0.816332628    -0.237613532    -3.042675530
 H       -0.502997222    -2.982290959    -0.722630486
 H        0.889258651    -2.505503943    -1.712393110
 H       -0.649243788    -2.887265073    -2.471055717
 H        0.901637474    -0.145095983     2.959174598
 H       -0.537774467    -0.801916773     3.722958377
 H       -0.606691945     0.789120829     2.977212085
 H       -2.558321007    -1.629304623     0.721985460
 H       -2.695417931    -0.096719484     1.606698197
 H       -2.473905748    -1.608509641     2.476336923

