187   

Si        0.000000000     0.000000000     0.000000000
 C        1.865280127     0.000000000     0.000000000
 C       -0.678634441     1.711263760     0.000000000
 C        0.137643115     2.811839240     0.279320225
 C       -0.387848788     4.103844913     0.276394362
 C       -1.739730124     4.324760671     0.000963223
 C       -2.557261264     3.220598774    -0.275264814
 C       -2.035242439     1.930104733    -0.275688536
 C       -2.332597882     5.658045725    -0.013076295
 C       -1.660924519     6.796032759     0.231500247
 C       -2.252146473     8.129997866     0.217877981
 C       -3.604502018     8.352308490    -0.057536032
 C       -4.128001669     9.644596327    -0.060003524
 C       -3.303945534    10.743877756     0.201933627
 C       -1.948075229    10.525717891     0.477446174
 C       -1.431575908     9.232655754     0.489590557
Si       -3.975782184    12.456237387     0.203205248
 C       -2.608445257    13.629704179    -0.101437991
 C       -2.331513677    14.719746809     0.625242071
 C       -1.221161705    15.630550602     0.338902073
 C       -1.027741333    16.743791074     1.171934110
 C        0.007063652    17.634034763     0.943377183
 C        0.907052022    17.417866608    -0.122043048
 C        0.710638651    16.311255334    -0.962665717
 C       -0.356445552    15.446956515    -0.741708289
 N        1.945811376    18.357577819    -0.311165307
 C        2.786264548    18.622074680     0.881037760
 C        2.725551383    18.237628862    -1.554006605
 C        3.022848569    17.423878629     1.815473681
 C        3.733091474    16.245386420     1.124060039
 N        3.487419840    14.947656927     1.786885198
 C        3.812867160    14.892370370     3.159864446
 C        5.027794519    15.461953047     3.597113921
 C        5.376604498    15.424506478     4.936891352
 C        4.560109060    14.783135159     5.880455719
 C        3.372383591    14.194796552     5.439944898
 C        2.999685793    14.238272726     4.101775335
 C        2.203949679    14.341687097     1.392125047
 C        4.976532020    14.773482540     7.283775951
 C        4.280419572    14.193977312     8.271197881
Si        4.797973820    14.180285542    10.024809556
 C        6.628477476    14.211175569    10.203985228
 C        7.431936319    13.596876755     9.236298943
 C        8.820556790    13.610514109     9.355896786
 C        9.437367535    14.224656851    10.449749331
 C        8.630915627    14.830718816    11.421790975
 C        7.243155946    14.822858133    11.303050195
 C       10.886648976    14.262783851    10.615465784
 C       11.767925339    13.721011831     9.757716015
 C       13.217442962    13.757522637     9.920706858
 C       13.838965457    14.373883096    11.009765128
 C       15.228989554    14.384901561    11.125357762
 C       16.028765478    13.784652507    10.147937401
 C       15.407849327    13.166838008     9.053852355
 C       14.020247047    13.152269254     8.944328677
Si       17.864528354    13.790088172    10.284908475
 C       18.450837370    14.964066743    11.610828401
 C       18.475063018    12.037479283    10.708287854
 C       18.585180510    14.291262167     8.595772362
 C        4.025623736    15.679977775    10.904582387
 C        4.133418702    12.590066270    10.830264430
 C       -5.264542177    12.645606430    -1.182396826
 C       -4.817537721    12.792199867     1.874310206
 C       -0.656502291    -0.901780200    -1.542597777
 C       -0.612167918    -0.924391954     1.547176510
 H        1.202551364     2.702086988     0.502584113
 H        0.269803117     4.943676356     0.493618120
 H       -3.613080787     3.370526587    -0.492570486
 H       -2.721056972     1.108242486    -0.499884252
 H       -3.401612784     5.681043250    -0.243789424
 H       -0.591756488     6.772310420     0.462563791
 H       -4.263174415     7.512683518    -0.271273808
 H       -5.193656770     9.756695939    -0.277366188
 H       -1.259181384    11.349696303     0.691896413
 H       -0.376511846     9.080283505     0.710063683
 H       -2.001129188    13.364880834    -0.983688156
 H       -2.920433167    15.016713740     1.502608244
 H       -1.706595553    16.916931051     2.007762142
 H        0.126202036    18.509942350     1.577235025
 H        1.381069135    16.118830102    -1.794388098
 H       -0.501958839    14.604406635    -1.419910771
 H        3.323444210    19.157327991    -1.686265628
 H        2.038024665    18.183152655    -2.417066542
 H        3.406379880    17.372745353    -1.585643716
 H        2.102006262    14.371656421     0.292830435
 H        1.320204218    14.844772898     1.820118387
 H        2.195319929    13.277346136     1.686340934
 H        5.694423689    15.933936708     2.880847238
 H        6.309852745    15.888445445     5.258512501
 H        2.718964209    13.689864922     6.152672695
 H        2.063650607    13.775893426     3.803377489
 H        5.932855669    15.288421715     7.454280548
 H        3.320636348    13.692628654     8.074472166
 H        7.005135538    13.094933593     8.360924374
 H        9.423632607    13.132349881     8.586084793
 H        9.091003562    15.313562335    12.281654683
 H        6.666183836    15.311182159    12.092887917
 H       11.231330785    14.779160467    11.516015357
 H       11.422214646    13.204207902     8.857466008
 H       13.239117975    14.851949528    11.782000576
 H       15.657327000    14.881107694    12.000621931
 H       15.981980274    12.682533552     8.258856592
 H       13.556233285    12.666017830     8.088281665
 H        3.761294200    19.045125007     0.556147737
 H        2.272124239    19.432892995     1.452732739
 H        3.612787639    17.753308883     2.693416058
 H        2.058106204    17.077669456     2.239686889
 H        3.405808162    16.153662400     0.064616258
 H        4.831685142    16.417429550     1.089705664
 H        2.263027426    -1.029777291    -0.042009090
 H        2.275089597     0.477698547     0.907188990
 H        2.261342940     0.544360547    -0.876539448
 H       19.554135973    14.992974865    11.657443581
 H       18.083552858    14.669453145    12.609476251
 H       18.100357454    15.993122568    11.412028015
 H       19.592024577    12.128111307    10.840308011
 C       17.879742439    11.508541723    12.026092970
 C       18.209287816    11.004811616     9.598454617
 H       18.224167075    13.512469734     7.862578181
 C       18.069742628    15.661042698     8.118422666
 C       20.123777647    14.293985592     8.560615584
 H        4.318278147    15.591784072    11.990524679
 C        4.571217680    17.015522944    10.367900777
 C        2.488501151    15.701928762    10.828026210
 H        3.012498869    12.622700230    10.707279520
 C        4.654428616    11.321929524    10.130527881
 C        4.447283724    12.496848873    12.333588604
 H       -6.092560455    11.918863816    -0.937660766
 C       -5.874053806    14.056872399    -1.248627536
 C       -4.701973591    12.275653747    -2.566384809
 H       -5.118644047    13.879676800     1.858206774
 C       -6.086763719    11.950352205     2.095887940
 C       -3.865797285    12.574212629     3.065056792
 H       -1.781265502    -0.900667443    -1.446085397
 C       -0.295908164    -0.172455055    -2.849483842
 C       -0.193962267    -2.366321563    -1.641384003
 H       -0.114743408    -1.936690618     1.513691341
 C       -0.191672813    -0.228694419     2.854847443
 C       -2.135455929    -1.143249549     1.573367307
 H       18.098340907    12.147419794    12.891412438
 H       18.300929457    10.520222455    12.259957423
 H       16.789374397    11.374431618    11.978693513
 H       18.668613343    11.268690409     8.637489291
 H       17.137807650    10.831734836     9.424986753
 H       18.633442095    10.030741456     9.883087088
 H       16.972971485    15.717318025     8.065341676
 H       18.436927375    15.869342313     7.103371034
 H       18.413374768    16.492368815     8.748150040
 H       20.566287518    13.323722047     8.820826134
 H       20.566083518    15.051430246     9.221241906
 H       20.475277287    14.529367336     7.545430113
 H        5.663888694    17.103476688    10.444814871
 H        4.153318938    17.853244414    10.943439787
 H        4.299347338    17.196385519     9.317759379
 H        2.017388201    14.811356325    11.263009460
 H        2.113906638    15.812077843     9.800635281
 H        2.096733920    16.561388577    11.390896675
 H        4.420370783    11.287711143     9.057600075
 H        4.193072083    10.428897298    10.575289739
 H        5.741025161    11.191243343    10.237204010
 H        4.021714693    13.321243259    12.919674774
 H        5.525686973    12.457707614    12.544373506
 H        4.021179618    11.572590044    12.750110616
 H       -6.374413078    14.359532548    -0.319739457
 H       -6.638796847    14.099956140    -2.037392546
 H       -5.134334130    14.831866037    -1.495827581
 H       -4.282430870    11.260589009    -2.609449995
 H       -3.925354966    12.971113627    -2.912989638
 H       -5.502483602    12.308302077    -3.319227522
 H       -6.863953785    12.126522937     1.341366349
 H       -6.539897443    12.202265562     3.065882526
 H       -5.884894256    10.870191552     2.125669212
 H       -2.944730273    13.170259141     3.008221714
 H       -3.568808244    11.522080643     3.184563017
 H       -4.362775092    12.861234875     4.002414343
 H       -0.645951746     0.869466422    -2.875588126
 H       -0.767888910    -0.676069785    -3.705088156
 H        0.783112791    -0.163877694    -3.052875524
 H       -0.480367059    -2.972481404    -0.772251455
 H        0.891512287    -2.464690739    -1.774854360
 H       -0.655281421    -2.847099287    -2.516316332
 H        0.894488029    -0.106155525     2.954736712
 H       -0.513897946    -0.826167931     3.719745493
 H       -0.651066580     0.762702891     2.977876996
 H       -2.510228980    -1.706566850     0.709524745
 H       -2.700544702    -0.202494242     1.634507365
 H       -2.415378859    -1.725882845     2.463228778

