187   

Si        0.000000000     0.000000000     0.000000000
 C        1.865267502     0.000000000     0.000000000
 C       -0.675567163     1.712218399     0.000000000
 C        0.148839317     2.815662138     0.240413469
 C       -0.377058983     4.107467896     0.237320416
 C       -1.738347801     4.322577046     0.009741722
 C       -2.564657474     3.215583881    -0.226134740
 C       -2.040902978     1.926380874    -0.233850933
 C       -2.333287798     5.654378590    -0.002852414
 C       -1.656431347     6.797691554     0.198046687
 C       -2.262639715     8.124246066     0.183075522
 C       -1.449855912     9.242827682     0.406470558
 C       -1.988886440    10.527565742     0.400540436
 C       -3.349962722    10.721803983     0.141710880
 C       -4.162542642     9.604931986    -0.090442387
 C       -3.624637706     8.320533695    -0.064193408
Si       -4.110252923    12.396550930     0.122364564
 C       -5.488167783    12.461802833    -1.075840705
 C       -5.550071332    11.723878244    -2.192102771
 C       -6.657801362    11.781562118    -3.147865665
 C       -6.609697388    10.958329907    -4.283333107
 C       -7.633108572    10.976796242    -5.216288291
 C       -8.761341966    11.790953613    -5.008008807
 C       -8.820397488    12.606866849    -3.872227221
 C       -7.767855113    12.606761678    -2.961823686
 N       -9.777092178    11.759094862    -6.012174560
 C      -10.481156814    10.458254195    -6.051374152
 C      -10.705318174    12.903547574    -6.007259037
 C      -11.257552945    10.120121110    -4.761766767
 C      -11.461113447     8.603215546    -4.583051632
 N      -10.595470475     7.978870721    -3.562532364
 C       -9.214294580     7.910705969    -3.836079599
 C       -8.777607153     7.662166753    -5.154348515
 C       -7.424755808     7.591846273    -5.441570212
 C       -6.463332088     7.645080660    -4.422083559
 C       -6.897840074     7.841212598    -3.109148980
 C       -8.248549228     7.980862454    -2.814078428
 C      -10.972901150     8.372396163    -2.193223640
 C       -5.051552526     7.565577373    -4.794369768
 C       -4.026376054     7.603343742    -3.932514000
Si       -2.283124755     7.497489809    -4.483308849
 C       -2.126961457     8.222051294    -6.170173995
 C       -2.855628258     9.380771029    -6.476715797
 C       -2.765262519     9.958917033    -7.739027799
 C       -1.938713790     9.401850851    -8.724199709
 C       -1.208407817     8.251889609    -8.413928447
 C       -1.298831673     7.668647416    -7.149788382
 C       -1.877143471    10.044050423   -10.032855175
 C       -1.129741872     9.613611528   -11.063302260
 C       -1.069394421    10.257175692   -12.371464216
 C       -1.800381465    11.407229100   -12.680254591
 C       -1.712874078    11.990071652   -13.944453505
 C       -0.885988929    11.436956583   -14.927159925
 C       -0.151798505    10.283306728   -14.619966321
 C       -0.245613634     9.700666442   -13.359263733
Si       -0.759567948    12.194145426   -16.600070107
 C       -1.494683639    13.908350800   -16.634496610
 C        1.078652323    12.257260508   -17.090977293
 C       -1.683663617    11.106241146   -17.859329050
 C       -1.206418428     8.452307746    -3.248476025
 C       -1.728320028     5.678831368    -4.531032889
 C       -4.795259071    12.778967973     1.853722435
 C       -2.817412101    13.710544837    -0.341860289
 C       -0.660105561    -0.883182618    -1.552095006
 C       -0.612720218    -0.934161685     1.540113217
 H        1.220300565     2.708341147     0.430123159
 H        0.287070662     4.950352488     0.419685271
 H       -3.628119723     3.362412765    -0.407854471
 H       -2.731885355     1.101378008    -0.429900367
 H       -3.411295174     5.671137455    -0.193710568
 H       -0.580323505     6.784721399     0.389720992
 H       -0.386385278     9.110311129     0.594160611
 H       -1.310347302    11.362214460     0.594114556
 H       -5.235043056     9.699643007    -0.295891504
 H       -4.276927968     7.467004358    -0.241819041
 H       -6.279953154    13.182449090    -0.821867459
 H       -4.768816758    11.003949030    -2.478438896
 H       -5.753738342    10.295974114    -4.440585776
 H       -7.574441759    10.354632203    -6.108747950
 H       -9.680974880    13.242458300    -3.689856386
 H       -7.826335300    13.256534026    -2.088619720
 H      -11.305044057    12.870348131    -6.933457578
 H      -10.124440044    13.842401470    -6.030083503
 H      -11.392685116    12.933377781    -5.148954560
 H      -12.070959348     8.403065753    -2.099308241
 H      -10.571803391     9.353056326    -1.888181474
 H      -10.612405697     7.602761624    -1.486339449
 H       -9.500156124     7.531286657    -5.954837713
 H       -7.107447143     7.454216461    -6.476577360
 H       -6.169921679     7.898523385    -2.298122904
 H       -8.540365112     8.161402715    -1.784727075
 H       -4.904490644     7.475527302    -5.881667875
 H       -4.179869028     7.683487606    -2.846966219
 H       -3.514815783     9.862344204    -5.745141885
 H       -3.343079225    10.854839029    -7.960277931
 H       -0.558432371     7.799948684    -9.160470964
 H       -0.701526428     6.771547387    -6.966669000
 H       -2.501901030    10.936695014   -10.133512085
 H       -0.505101058     8.721330245   -10.963001005
 H       -2.448425864    11.859863448   -11.931821058
 H       -2.309179586    12.888378131   -14.126687100
 H        0.510898480     9.807052822   -15.347948550
 H        0.330633954     8.803810672   -13.140115558
 H      -11.165260465    10.462802737    -6.926738705
 H       -9.713555857     9.676086862    -6.257243963
 H      -10.714887934    10.530110542    -3.885754524
 H      -12.233690545    10.635194637    -4.766157912
 H      -12.517043190     8.394569150    -4.292590789
 H      -11.317320099     8.065416048    -5.546703376
 H        2.263246441    -1.030029085    -0.033622442
 H        2.274595060     0.484666434     0.903665046
 H        2.261732591     0.537108887    -0.880743156
 H       -1.376794956    14.371882237   -17.630191856
 H       -0.996374832    14.567523538   -15.900499495
 H       -2.573273413    13.896169538   -16.399060707
 H        1.434577778    11.185959447   -17.094390034
 C        1.319683823    12.837838926   -18.495839112
 C        1.933834058    13.033858952   -16.073333996
 H       -1.612421053    11.652475344   -18.844067585
 C       -1.060998675     9.710637236   -18.043139786
 C       -3.174615788    10.938837464   -17.513126000
 H       -1.408778570     7.979428379    -2.240234724
 C        0.300871557     8.338833980    -3.530733920
 C       -1.591547659     9.939161684    -3.158703572
 H       -0.677188135     5.691432860    -4.942176557
 C       -1.684778166     5.006995660    -3.151275309
 C       -2.601757899     4.824890916    -5.468731168
 H       -5.246435785    13.811116324     1.790763365
 C       -5.905722705    11.797498476     2.270552812
 C       -3.708872785    12.797684264     2.942926774
 H       -1.998342041    13.630240877     0.429855374
 C       -2.198265096    13.458100761    -1.727932110
 C       -3.370977264    15.146079212    -0.297776403
 H       -1.783366344    -0.905210243    -1.440361334
 C       -0.332164699    -0.120132218    -2.848571946
 C       -0.171375768    -2.336056370    -1.686127441
 H       -0.114304455    -1.945919073     1.499624716
 C       -0.191985815    -0.246818055     2.852210964
 C       -2.135556195    -1.155671490     1.566822181
 H        0.795847980    12.288990574   -19.288980328
 H        2.390026116    12.788199288   -18.743574011
 H        1.035221627    13.895298904   -18.576774162
 H        1.855818211    12.638638721   -15.050234206
 H        1.688743577    14.103456080   -16.033972695
 H        2.996607723    12.969713483   -16.346828698
 H       -0.016830644     9.740129618   -18.379141061
 H       -1.614158880     9.151267435   -18.811633342
 H       -1.105402471     9.099935507   -17.130292573
 H       -3.716212053    11.890835973   -17.442571489
 H       -3.335429857    10.393994731   -16.571618051
 H       -3.679986885    10.355490850   -18.296023621
 H        0.669252377     7.304909208    -3.511558302
 H        0.868468657     8.881513958    -2.761157890
 H        0.591155557     8.780329626    -4.494106738
 H       -2.646974191    10.098295498    -2.894036036
 H       -1.386843844    10.493182230    -4.084546980
 H       -1.005584721    10.426844584    -2.365208797
 H       -1.023703625     5.515388541    -2.435800728
 H       -1.300577575     3.980194630    -3.239192402
 H       -2.675162526     4.921797618    -2.682684099
 H       -2.636869634     5.201139145    -6.499803565
 H       -3.639126577     4.732621576    -5.115706615
 H       -2.203619278     3.802128491    -5.526584276
 H       -6.748690251    11.767767762     1.566649432
 H       -6.325448825    12.093869215     3.242251522
 H       -5.540646212    10.767943415     2.395579055
 H       -2.922920867    13.542121867     2.761878928
 H       -3.220947183    11.821779819     3.077960012
 H       -4.155022998    13.053108394     3.915094873
 H       -1.726877577    12.469680499    -1.823149152
 H       -1.409217654    14.196094673    -1.929648105
 H       -2.927621339    13.556079017    -2.545712508
 H       -3.762799770    15.433495021     0.686027213
 H       -4.163004393    15.321579620    -1.039320606
 H       -2.570763305    15.864007914    -0.529530477
 H       -0.706508660     0.913716854    -2.849594612
 H       -0.803286030    -0.618085957    -3.708111377
 H        0.743674056    -0.083052880    -3.064796454
 H       -0.431364338    -2.964033313    -0.824217320
 H        0.913407469    -2.410706434    -1.839283160
 H       -0.637964503    -2.809428668    -2.562396783
 H        0.894067700    -0.123247747     2.952027774
 H       -0.512458177    -0.850862934     3.713255506
 H       -0.652780863     0.742895744     2.982670971
 H       -2.510907126    -1.712262560     0.698820072
 H       -2.702264402    -0.216654672     1.637542066
 H       -2.412950967    -1.746650886     2.452046547

