187   

Si        0.000000000     0.000000000     0.000000000
 C        1.865315380     0.000000000     0.000000000
 C       -0.682324774     1.709574237     0.000000000
 C        0.133832207     2.815475632     0.257392294
 C       -0.397258166     4.105325031     0.254058887
 C       -1.754652670     4.318446546     0.000802402
 C       -2.571950503     3.208797105    -0.253791214
 C       -2.044304911     1.920717594    -0.254751353
 C       -2.354673602     5.648420060    -0.013066145
 C       -1.686602246     6.792784786     0.210730997
 C       -2.288817750     8.121914243     0.196358658
 C       -3.647760707     8.329657546    -0.057632887
 C       -4.182830914     9.616883054    -0.061966680
 C       -3.364807901    10.726549774     0.176886513
 C       -2.002859242    10.522776031     0.430411895
 C       -1.474037106     9.234382531     0.443873879
Si       -4.065190055    12.427369973     0.172413667
 C       -2.731633339    13.646721256    -0.099778792
 C       -2.504336031    14.740053056     0.639763297
 C       -1.421644143    15.691759484     0.384813225
 C       -1.280830663    16.802675307     1.227800468
 C       -0.272601652    17.732419297     1.028986426
 C        0.672715160    17.553680702    -0.003771438
 C        0.531909434    16.436462829    -0.850142157
 C       -0.512227660    15.540114606    -0.665842089
 N        1.695784219    18.497091383    -0.205526425
 C        2.137721749    19.279813872     0.961514084
 C        2.814519211    18.090378159    -1.073555317
 C        2.801540204    18.418880884     2.048273995
 C        3.173594657    19.280763095     3.265630171
 N        3.955585851    18.548981241     4.276941504
 C        5.240389630    18.109223164     3.909336290
 C        5.962468726    18.767166780     2.890942987
 C        7.227841972    18.330659426     2.531946612
 C        7.845703405    17.265253468     3.201015050
 C        7.142779859    16.634535155     4.231384639
 C        5.865889917    17.045630646     4.589569657
 C        3.133754806    17.609172859     5.059729787
 C        9.182956335    16.846497465     2.779473313
 C        9.871998201    15.844070862     3.341625293
Si       11.542946212    15.329679448     2.806115152
 C       11.802015631    15.645685370     1.012313905
 C       10.736509289    15.460642594     0.122932639
 C       10.903662797    15.692393249    -1.241081707
 C       12.139786302    16.102017163    -1.749670793
 C       13.206506170    16.278769438    -0.859086744
 C       13.041662782    16.051764408     0.505446681
 C       12.359972363    16.355989940    -3.169643430
 C       11.422985052    16.224046362    -4.123826274
 C       11.640667733    16.477374170    -5.544191640
 C       12.873109390    16.890593489    -6.056509699
 C       13.036522570    17.121399071    -7.422411382
 C       11.967431968    16.946389286    -8.306467455
 C       10.730161247    16.531618659    -7.795093405
 C       10.570957016    16.298824381    -6.431987852
Si       12.165751802    17.246587510   -10.111923828
 C       13.770854980    18.118142943   -10.490919478
 C       12.142613047    15.584720293   -11.039770566
 C       10.690217887    18.292145867   -10.705921367
 C       12.835444757    16.267668314     3.840030305
 C       11.735318351    13.466076281     3.134904129
 C       -5.328389909    12.588256052    -1.241880932
 C       -4.956997608    12.736166628     1.823411970
 C       -0.656465509    -0.901596364    -1.542747116
 C       -0.608163181    -0.927230563     1.547219579
 H        1.202725627     2.711539338     0.463304639
 H        0.260191848     4.949631061     0.453438147
 H       -3.631986512     3.352736044    -0.454023091
 H       -2.730147733     1.094544971    -0.462575738
 H       -3.427734928     5.663197834    -0.225372628
 H       -0.613597452     6.778641229     0.423296252
 H       -4.302321001     7.482469028    -0.252978993
 H       -5.253033774     9.716787813    -0.262673002
 H       -1.318652754    11.355094746     0.625745540
 H       -0.413960800     9.093767073     0.646563804
 H       -2.099648508    13.410135534    -0.972224481
 H       -3.119210339    15.008350639     1.508748846
 H       -1.982866893    16.948523689     2.049427883
 H       -0.216166628    18.597510824     1.682778956
 H        1.229164365    16.266095934    -1.664313725
 H       -0.607136729    14.693238316    -1.347993765
 H        3.578838882    18.884825677    -1.107532185
 H        2.442143885    17.961358328    -2.106111791
 H        3.302474646    17.156197920    -0.749290257
 H        2.120895111    18.018512449     5.209082599
 H        3.581190166    17.488967893     6.063217016
 H        3.038196839    16.616521154     4.589260222
 H        5.530653140    19.616151075     2.369742399
 H        7.755781121    18.837974274     1.722913973
 H        7.599962282    15.803048106     4.770096712
 H        5.357576387    16.530132391     5.398019262
 H        9.573634312    17.435323237     1.936855298
 H        9.464052421    15.274592512     4.189825742
 H        9.746109981    15.138701239     0.462973116
 H       10.058385200    15.547755543    -1.911227049
 H       14.177248514    16.596567765    -1.234430784
 H       13.910289477    16.205407885     1.151382931
 H       13.374791689    16.673816044    -3.426019909
 H       10.408500899    15.905262076    -3.866891925
 H       13.720630133    17.036541741    -5.389252434
 H       14.024253960    17.443325877    -7.763895464
 H        9.858766943    16.379349876    -8.438244262
 H        9.602916444    15.975728410    -6.054019331
 H        2.840973927    20.067138489     0.605170655
 H        1.260618513    19.829268172     1.373260673
 H        2.125700930    17.596293627     2.352035959
 H        3.703288807    17.919797483     1.642551812
 H        3.753932246    20.179005390     2.952866587
 H        2.255449832    19.677407351     3.756173921
 H        2.262849747    -1.029920668    -0.039942785
 H        2.274799467     0.479516328     0.906357419
 H        2.261692396     0.542585232    -0.877471862
 H       13.856137034    18.343750070   -11.569004559
 H       14.645167987    17.505463417   -10.209330634
 H       13.840199477    19.076764485    -9.945360178
 H       12.338389113    15.838487494   -12.121850502
 C       13.252973782    14.629051776   -10.565746687
 C       10.792856723    14.849479505   -10.960722758
 H        9.768628209    17.678543370   -10.485071629
 C       10.563923754    19.622151181    -9.941098855
 C       10.711335354    18.582434099   -12.217155154
 H       13.842982012    15.896702122     3.493376985
 C       12.777488707    17.788226679     3.607895134
 C       12.722059661    15.989379899     5.349630088
 H       11.575233040    13.327137782     4.243055832
 C       10.678824565    12.629115751     2.391548864
 C       13.134654904    12.932196772     2.782843084
 H       -6.145342475    11.843632897    -1.015330863
 C       -5.966933478    13.985930197    -1.321511589
 C       -4.727478322    12.231046490    -2.612989926
 H       -5.274040131    13.819139790     1.806614080
 C       -6.219130480    11.874595827     2.006779193
 C       -4.033905476    12.524482704     3.037555703
 H       -1.781218734    -0.900831981    -1.445802199
 C       -0.296906088    -0.171462473    -2.849460530
 C       -0.193511234    -2.365932621    -1.642392339
 H       -0.106189866    -1.937334713     1.512611881
 C       -0.189307762    -0.230595368     2.854941640
 C       -2.130271134    -1.153581463     1.575336617
 H       14.262579716    15.046650179   -10.670702599
 H       13.238277705    13.707399794   -11.165019862
 H       13.129407669    14.316724428    -9.518724677
 H        9.955461608    15.430813528   -11.366763796
 H       10.530385930    14.547363917    -9.937135046
 H       10.835896969    13.922023678   -11.550433302
 H       10.482287381    19.490295080    -8.852667704
 H        9.653670776    20.152669617   -10.254983686
 H       11.401251284    20.307138153   -10.129309677
 H       10.730100524    17.674752727   -12.834120464
 H       11.559002226    19.210916600   -12.520844517
 H        9.803289004    19.131388469   -12.506355779
 H       12.912560577    18.075999541     2.556181036
 H       13.579478551    18.287435303     4.169526051
 H       11.834145990    18.236508523     3.953029476
 H       12.846264916    14.930047210     5.607782511
 H       11.768395080    16.330021893     5.776818375
 H       13.510828952    16.531072267     5.891565622
 H        9.646053819    12.914336690     2.634129293
 H       10.777939774    11.568753904     2.663815004
 H       10.788686007    12.676242959     1.298476791
 H       13.940514967    13.414455634     3.350773874
 H       13.373996451    13.029382790     1.714129725
 H       13.197019217    11.858720463     3.013144891
 H       -6.500355245    14.273468789    -0.406405865
 H       -6.708946764    14.015474105    -2.132112234
 H       -5.237373715    14.777992330    -1.544110827
 H       -4.288340116    11.223969859    -2.647088161
 H       -3.955867824    12.941297143    -2.940508135
 H       -5.510691116    12.249976127    -3.384086594
 H       -6.981057719    12.049289292     1.236568151
 H       -6.697538721    12.109208223     2.968831844
 H       -6.003183892    10.797094967     2.029324501
 H       -3.121311933    13.135257747     3.008325019
 H       -3.722822907    11.476463557     3.157228081
 H       -4.559246089    12.797072311     3.963490197
 H       -0.652311296     0.868643146    -2.876707824
 H       -0.764777047    -0.677927026    -3.705634609
 H        0.782380496    -0.157492052    -3.050986098
 H       -0.480963215    -2.972947432    -0.774220597
 H        0.892147876    -2.463951301    -1.774530952
 H       -0.653549450    -2.845964038    -2.518404865
 H        0.896800446    -0.108765965     2.956069907
 H       -0.513190777    -0.826960490     3.719943692
 H       -0.648126599     0.761259261     2.976422226
 H       -2.503413956    -1.717837822     0.711402112
 H       -2.699843053    -0.215684176     1.638362593
 H       -2.406093081    -1.738454415     2.464996965

