187   

Si        0.000000000     0.000000000     0.000000000
 C        1.864249700     0.000000000     0.000000000
 C       -0.664426829     1.717011491     0.000000000
 C        0.164083120     2.826893882    -0.189687087
 C       -0.365941058     4.117930551    -0.185097864
 C       -1.732694406     4.325095136     0.011938495
 C       -2.562217147     3.211192967     0.204641678
 C       -2.036710391     1.923415269     0.200140020
 C       -2.342549038     5.648960823     0.026806707
 C       -1.693097039     6.813527695    -0.141744879
 C       -2.350265284     8.117244067    -0.118435030
 C       -1.590050363     9.278183397    -0.303735373
 C       -2.191119661    10.536804054    -0.286342217
 C       -3.567000960    10.661467081    -0.072933669
 C       -4.329712146     9.500277810     0.112521524
 C       -3.728285046     8.245633258     0.084744246
Si       -4.452057075    12.276081629    -0.032291852
 C       -5.717702547    12.219024054     1.291579303
 C       -5.559987635    11.475172702     2.395261892
 C       -6.524474267    11.380766165     3.490151996
 C       -6.214683242    10.556694874     4.581865669
 C       -7.084929510    10.423662781     5.650610175
 C       -8.351122141    11.048285254     5.622638084
 C       -8.669166862    11.862712778     4.518489872
 C       -7.754816444    12.041722975     3.487397634
 N       -9.231622395    10.910322697     6.710481945
 C       -9.101099550     9.696310631     7.539311463
 C      -10.626830751    11.324116066     6.490006660
 C       -9.156782684     8.364217654     6.770961642
 C      -10.580974195     7.822459617     6.557899177
 N      -11.052476650     6.885343611     7.593365641
 C      -10.291338977     5.725123559     7.820735576
 C       -9.426775638     5.221268532     6.825194652
 C       -8.679448935     4.077020762     7.056263637
 C       -8.812282922     3.349676667     8.246823006
 C       -9.696444490     3.829356255     9.217528845
 C      -10.426924384     4.992843264     9.016902502
 C      -11.604407245     7.556735701     8.781763156
 C       -7.998387571     2.148062547     8.439510735
 C       -8.045018576     1.379821401     9.536184223
Si       -7.048003912    -0.126499572     9.817685834
 C       -5.411788409    -0.092807806     8.977015718
 C       -4.812856558     1.125488890     8.638502726
 C       -3.573184162     1.153569555     8.001507030
 C       -2.893905401    -0.031745245     7.705977891
 C       -3.489612751    -1.250441645     8.056287063
 C       -4.731770345    -1.282224631     8.685466409
 C       -1.594947765    -0.046612846     7.040492917
 C       -0.926208134     1.054028103     6.657082895
 C        0.371671973     1.056633387     5.991507185
 C        1.065812998    -0.115400920     5.678736999
 C        2.305237646    -0.060266756     5.041200205
 C        2.867620679     1.169998065     4.682695554
 C        2.169922356     2.345090145     4.989198505
 C        0.939851604     2.287761848     5.638545599
Si        4.504131953     1.236799740     3.841249257
 C        4.753504270    -0.260105635     2.756452334
 C        4.615136609     2.830664661     2.805195606
 C        5.870029760     1.294098396     5.164738461
 C       -6.764378682    -0.296498622    11.691818546
 C       -8.040391690    -1.632715375     9.210077084
 C       -3.240276554    13.701773915     0.301066418
 C       -5.307358496    12.575547919    -1.702667279
 C       -0.613949713    -0.954304376    -1.525922617
 C       -0.654894498    -0.863055130     1.567390913
 H        1.241911212     2.725219825    -0.343523450
 H        0.297797688     4.966617357    -0.335901759
 H       -3.629782233     3.352816711     0.361735975
 H       -2.730994856     1.093374434     0.361604415
 H       -3.425605641     5.642224060     0.193047976
 H       -0.614221145     6.838071857    -0.308985879
 H       -0.517015556     9.201123475    -0.465501418
 H       -1.549337183    11.407296937    -0.442929078
 H       -5.412005207     9.535057484     0.283265080
 H       -4.345789342     7.360379563     0.227741559
 H       -6.606307485    12.844560703     1.136356978
 H       -4.667046307    10.852192519     2.563542838
 H       -5.260033658    10.027848002     4.604283735
 H       -6.782431151     9.827564054     6.506987470
 H       -9.624931498    12.372582075     4.462031150
 H       -8.016345264    12.696895124     2.655485221
 H      -11.229096877    11.133604919     7.393165156
 H      -11.105005849    10.818335120     5.635393075
 H      -10.655244729    12.416400191     6.316945671
 H      -12.125130217     8.483495090     8.491086535
 H      -10.840330767     7.805435095     9.536328336
 H      -12.363875861     6.901130036     9.247189161
 H       -9.328983839     5.729343714     5.870015641
 H       -7.991399877     3.727388685     6.284666455
 H       -9.821349690     3.284103825    10.154409650
 H      -11.102354635     5.327235173     9.797404544
 H       -7.336714809     1.931794043     7.589198744
 H       -8.733300840     1.617192507    10.363147825
 H       -5.289025527     2.087241048     8.857733926
 H       -3.134436602     2.114871263     7.739194409
 H       -2.978139454    -2.185332851     7.836157628
 H       -5.146975093    -2.262954631     8.932904097
 H       -1.179438109    -1.042504033     6.865269614
 H       -1.347707214     2.048577176     6.835244854
 H        0.644754775    -1.084845458     5.937472296
 H        2.803953283    -1.009695745     4.828364275
 H        2.558019430     3.335031478     4.732922420
 H        0.413001456     3.212537042     5.867883503
 H       -8.127831214     9.775732446     8.082409152
 H       -9.879331571     9.719539747     8.332869761
 H       -8.661936975     8.474345095     5.783985813
 H       -8.543266761     7.612358563     7.308976960
 H      -11.310508971     8.657767992     6.477366237
 H      -10.641576637     7.290287688     5.577814686
 H        2.265253793    -1.028621200     0.017583019
 H        2.245487209     0.523574345     0.897327954
 H        2.276434449     0.503747584    -0.890950428
 H        5.692870435    -0.183378337     2.180961745
 H        3.925617712    -0.366214731     2.030482514
 H        4.800246328    -1.191212860     3.347200791
 H        4.505086506     3.680871639     3.540175233
 C        5.969165876     3.001351603     2.092636991
 C        3.488193744     2.957877930     1.764665461
 H        6.846905937     1.300879139     4.600739839
 C        5.813866789     2.559317350     6.039626785
 C        5.857907615     0.057765473     6.082339856
 H       -7.789828190    -0.332718579    12.160501742
 C       -6.016692928    -1.584144973    12.079008100
 C       -6.012976360     0.913268406    12.276139047
 H       -7.441016970    -2.542015015     9.504125998
 C       -9.429298508    -1.747500262     9.862687100
 C       -8.203500635    -1.641761901     7.679730870
 H       -2.478893667    13.663602987    -0.530981144
 C       -3.908596791    15.088043320     0.269332271
 C       -2.497640978    13.538588129     1.639676629
 H       -5.832805363    13.569747789    -1.608637199
 C       -4.319119229    12.665267476    -2.878702856
 C       -6.367010724    11.505499757    -2.021865480
 H       -0.153080940    -1.981418811    -1.446343984
 C       -2.142509339    -1.125063166    -1.585267597
 C       -0.140325709    -0.320175339    -2.847285867
 H       -1.741089955    -1.092287063     1.365459616
 C        0.059863631    -2.189304288     1.882098719
 C       -0.589035984     0.044826223     2.806247972
 H        6.825335713     3.007105685     2.779353309
 H        5.995660326     3.965002045     1.563386970
 H        6.155131290     2.229901743     1.333839654
 H        2.480407310     2.840482529     2.190511804
 H        3.587591357     2.236818831     0.941885752
 H        3.511213719     3.956383624     1.305285162
 H        5.924942476     3.489387106     5.467831958
 H        6.636287833     2.548797296     6.769660559
 H        4.886083136     2.633618476     6.624828001
 H        5.983612210    -0.888404070     5.540817960
 H        4.939883174    -0.019193664     6.682738609
 H        6.689527856     0.113118907     6.799585667
 H       -6.542914728    -2.499872282    11.781254344
 H       -5.901811592    -1.638219772    13.171376664
 H       -5.000017243    -1.630484410    11.662879517
 H       -6.515754429     1.871908043    12.088886186
 H       -4.984042259     0.999981759    11.897949084
 H       -5.931302588     0.815594785    13.367878882
 H       -9.392879175    -1.817945746    10.957098341
 H       -9.933723119    -2.659962967     9.513422618
 H      -10.093663835    -0.911509486     9.601754078
 H       -7.246645604    -1.626132885     7.139330306
 H       -8.806027783    -0.799818613     7.308964211
 H       -8.722385527    -2.556365478     7.360339078
 H       -4.390231046    15.318110451    -0.689482116
 H       -3.154292545    15.872211421     0.428658802
 H       -4.658451131    15.219276646     1.061944891
 H       -1.946995722    12.591543038     1.723064428
 H       -3.167633688    13.606629143     2.509420024
 H       -1.754303759    14.339103114     1.759489422
 H       -3.580579846    13.469499065    -2.767843886
 H       -4.862332756    12.873979872    -3.811722824
 H       -3.769691210    11.728073936    -3.048205372
 H       -7.143771336    11.416556873    -1.250367833
 H       -5.932614676    10.506791093    -2.173765636
 H       -6.887871535    11.758005635    -2.956321731
 H       -2.560268928    -1.636107456    -0.708776061
 H       -2.417752918    -1.738195352    -2.455729656
 H       -2.673289438    -0.170082745    -1.704751786
 H        0.951346904    -0.238272125    -2.925473577
 H       -0.562250759     0.681045176    -3.015224631
 H       -0.463536327    -0.936280270    -3.698361506
 H        0.024856702    -2.911368745     1.057439881
 H       -0.422730526    -2.678168523     2.740949169
 H        1.112803434    -2.047358936     2.161459504
 H       -1.149611175     0.983309949     2.693453874
 H        0.438808574     0.313619802     3.093826730
 H       -1.024072736    -0.465362489     3.677946745

