187   

Si        0.000000000     0.000000000     0.000000000
 C        1.865034054     0.000000000     0.000000000
 C       -0.689969426     1.706360929     0.000000000
 C        0.098592974     2.808513567     0.344878860
 C       -0.439783783     4.095511003     0.339855380
 C       -1.777145251     4.308887034    -0.003468491
 C       -2.567328022     3.202738760    -0.344281978
 C       -2.032853450     1.917675164    -0.341401670
 C       -2.386178321     5.634435398    -0.023605907
 C       -1.749392610     6.778816541     0.278031929
 C       -2.369120625     8.099980689     0.254473563
 C       -1.593070495     9.217182522     0.591313022
 C       -2.143713118    10.496179125     0.582036479
 C       -3.488673217    10.686365272     0.241184583
 C       -4.265705657     9.573343466    -0.096036588
 C       -3.708862737     8.295169005    -0.092522889
Si       -4.226565489    12.370621370     0.225535359
 C       -6.048920196    12.240546109     0.288396897
 C       -6.911324678    12.859019411    -0.528193363
 C       -8.366602829    12.720779712    -0.435224072
 C       -9.172460472    13.419172801    -1.348206709
 C      -10.552601147    13.321656472    -1.301837248
 C      -11.175548743    12.533643047    -0.311251862
 C      -10.372944093    11.828982636     0.599326859
 C       -8.986856986    11.911993871     0.519035686
 N      -12.588653480    12.468665133    -0.309217921
 C      -13.281233453    13.777182209    -0.261036272
 C      -13.197246799    11.454569466     0.567191665
 C      -12.598379274    14.867277275     0.580800865
 C      -12.431468968    14.463646243     2.056521157
 N      -11.506614620    15.340488069     2.794863501
 C      -11.875009222    16.687092533     2.951297084
 C      -13.238414690    17.050414608     2.999634861
 C      -13.606519945    18.376888116     3.153755163
 C      -12.644523957    19.383635856     3.317886450
 C      -11.295665328    19.018466428     3.302950485
 C      -10.908312523    17.696246989     3.130750948
 C      -10.091435986    15.064863632     2.491768193
 C      -13.091817207    20.767633607     3.476288503
 C      -12.269852180    21.813255684     3.640026637
Si      -12.842423794    23.538372554     3.836899567
 C      -14.428272132    23.828026358     2.949951752
 C      -14.658081759    23.185251734     1.725848595
 C      -15.849392219    23.387566405     1.035118697
 C      -16.835093521    24.245200773     1.541539276
 C      -16.599733602    24.891173423     2.758119498
 C      -15.408783849    24.687347876     3.454880160
 C      -18.066830561    24.424234449     0.780290354
 C      -19.090598141    25.211169455     1.152471087
 C      -20.321563802    25.388553736     0.389278068
 C      -20.554082488    24.741285570    -0.826935976
 C      -21.745764600    24.939430062    -1.524166698
 C      -22.730483819    25.795393619    -1.021200765
 C      -22.499788147    26.445953652     0.198632922
 C      -21.311634718    26.242154051     0.894701311
Si      -24.308398144    26.067429118    -1.929332663
 C      -24.217951355    25.413495886    -3.674070706
 C      -25.725898530    25.182381675    -1.018087731
 C      -24.672663034    27.935731901    -1.945490168
 C      -13.041332810    23.914737739     5.691081818
 C      -11.518212760    24.699543240     3.117867238
 C       -3.642160969    13.336178730     1.757219159
 C       -3.654622768    13.291992057    -1.336016549
 C       -0.649030379    -0.910350820    -1.541338227
 C       -0.615729500    -0.922496865     1.547087121
 H        1.151191398     2.703612196     0.621690217
 H        0.195861577     4.937210662     0.608556583
 H       -3.611734843     3.347058761    -0.614623691
 H       -2.698077453     1.094112887    -0.615997799
 H       -3.441790249     5.646173868    -0.312231882
 H       -0.694608312     6.771230881     0.566579815
 H       -0.547402882     9.086805142     0.863049176
 H       -1.490367430    11.330320059     0.852031730
 H       -5.320759183     9.663996128    -0.374697939
 H       -4.332842254     7.445003867    -0.362400123
 H       -6.406950864    11.586729686     1.101885943
 H       -6.590412203    13.521662841    -1.342274885
 H       -8.706549781    14.042224002    -2.112429057
 H      -11.163661325    13.844327156    -2.034170502
 H      -10.819433203    11.210278360     1.371576048
 H       -8.382755637    11.342872775     1.227704167
 H      -14.269147108    11.364515794     0.316072869
 H      -13.108009895    11.666677426     1.643820893
 H      -12.741184272    10.469772480     0.359368249
 H       -9.940292549    13.985469690     2.309985281
 H       -9.475673262    15.334854779     3.368615607
 H       -9.718046128    15.606666717     1.607220430
 H      -14.011679467    16.293699401     2.909602388
 H      -14.665864937    18.637506336     3.162862799
 H      -10.526235132    19.781356079     3.430441088
 H       -9.849981805    17.456238987     3.128355883
 H      -14.185812109    20.873893347     3.439088547
 H      -11.178698038    21.681915385     3.684016677
 H      -13.922720873    22.505904508     1.281065235
 H      -16.012933083    22.874437816     0.089462072
 H      -17.348653669    25.562722334     3.173423504
 H      -15.282146340    25.220955933     4.400734459
 H      -18.113104018    23.856473850    -0.153772060
 H      -19.044953076    25.779463740     2.086032595
 H      -19.802234831    24.072910735    -1.242460259
 H      -21.870103072    24.405157626    -2.470096830
 H      -23.233208628    27.126654489     0.640120473
 H      -21.151358562    26.755030182     1.841185992
 H      -13.360127975    14.129898630    -1.318339203
 H      -14.324926400    13.625960353     0.090537448
 H      -11.606772961    15.113859541     0.149998717
 H      -13.181697522    15.806625889     0.511850425
 H      -13.414622636    14.456447004     2.577094141
 H      -12.041068797    13.422461163     2.134867548
 H        2.262161066    -1.030045684    -0.040827846
 H        2.275835981     0.479096228     0.905884929
 H        2.260690747     0.543404997    -0.877399879
 H      -25.152066270    25.621427720    -4.225857450
 H      -24.056254167    24.321539224    -3.693966716
 H      -23.390540857    25.887710944    -4.232607031
 H      -26.642205309    25.335176053    -1.658617670
 C      -25.484839607    23.667482552    -0.883651270
 C      -26.019307492    25.760270681     0.377980443
 H      -24.757901381    28.243892324    -0.862787123
 C      -23.531935381    28.752747268    -2.578826084
 C      -25.995961835    28.297297191    -2.643228436
 H      -13.362182209    24.994125780     5.759387830
 C      -14.129262420    23.047340122     6.349455760
 C      -11.732034374    23.758617064     6.485389406
 H      -10.573476396    24.493386874     3.698983798
 C      -11.236527346    24.414607070     1.631569556
 C      -11.866636415    26.188982607     3.284101440
 H       -2.521198975    13.423270888     1.661581035
 C       -4.226783077    14.757767876     1.830391938
 C       -3.950387863    12.598016200     3.072058201
 H       -4.220660043    14.268291434    -1.344725724
 C       -2.149842085    13.615192306    -1.338888247
 C       -3.997357438    12.525700432    -2.626653635
 H       -1.773599724    -0.922630095    -1.444076148
 C       -0.297510172    -0.178376707    -2.849194516
 C       -0.170320978    -2.369851106    -1.639123683
 H       -0.125182816    -1.937962879     1.513390264
 C       -0.191277521    -0.229986264     2.855086630
 C       -2.140649942    -1.130627936     1.571858483
 H      -25.345217421    23.160275381    -1.846895479
 H      -26.352689204    23.188780188    -0.407768080
 H      -24.616929520    23.427712067    -0.252516073
 H      -26.281298905    26.825725142     0.362933116
 H      -25.183113812    25.627492134     1.078878912
 H      -26.878700444    25.240168313     0.825858325
 H      -22.559294981    28.588486179    -2.093101799
 H      -23.742559110    29.827879608    -2.487850514
 H      -23.404070214    28.552623540    -3.650864064
 H      -26.870549152    27.804013721    -2.199870195
 H      -25.990766787    28.067434287    -3.716931473
 H      -26.179382227    29.378646132    -2.561922620
 H      -15.114560965    23.143946560     5.873018713
 H      -14.264294529    23.342614984     7.399329295
 H      -13.872801161    21.977682789     6.360324600
 H      -10.923422501    24.407273299     6.125576228
 H      -11.356902433    22.725486504     6.491197428
 H      -11.897238060    24.030405768     7.537975115
 H      -10.926961973    23.378668443     1.437007361
 H      -10.417208114    25.053944178     1.273654598
 H      -12.099061865    24.630729497     0.984806161
 H      -11.991013903    26.493331471     4.331136637
 H      -12.777680619    26.478759974     2.741107356
 H      -11.057265404    26.812423739     2.877404925
 H       -3.974343254    15.377350996     0.960201084
 H       -3.826244820    15.284440762     2.708471923
 H       -5.320838670    14.765856942     1.939043226
 H       -3.528756805    11.583519087     3.111186315
 H       -5.026710296    12.518748638     3.277048409
 H       -3.514054949    13.143381563     3.921151150
 H       -1.837210119    14.245722267    -0.496921816
 H       -1.887500085    14.171149225    -2.251006044
 H       -1.518637625    12.715304643    -1.339345675
 H       -5.065030512    12.287607273    -2.727543981
 H       -3.441472753    11.581426601    -2.721260636
 H       -3.730734349    13.128684627    -3.506080955
 H       -0.658144035     0.859931375    -2.875819293
 H       -0.765086846    -0.687589167    -3.703924671
 H        0.781148163    -0.158794206    -3.053817881
 H       -0.448714910    -2.978129042    -0.768907174
 H        0.915923157    -2.456413428    -1.774306362
 H       -0.627778574    -2.856603771    -2.512800022
 H        0.895546555    -0.114213698     2.955230099
 H       -0.517294694    -0.826064107     3.719554587
 H       -0.645029755     0.763940586     2.978575503
 H       -2.517669796    -1.696056228     0.710364679
 H       -2.699522101    -0.185668508     1.626397579
 H       -2.426191751    -1.706448192     2.464326562

