187   

Si        0.000000000     0.000000000     0.000000000
 C        1.865061001     0.000000000     0.000000000
 C       -0.678925953     1.710010371     0.000000000
 C        0.147177299     2.823360808     0.181389946
 C       -0.387860170     4.111431270     0.178009357
 C       -1.756608890     4.314685971    -0.014129920
 C       -2.583810777     3.197305664    -0.191639164
 C       -2.054601671     1.910262215    -0.177168976
 C       -2.365417494     5.639262892    -0.026349826
 C       -1.701435098     6.795591197     0.141331206
 C       -2.333398457     8.110950984     0.125109886
 C       -3.708779761     8.271391528    -0.070559711
 C       -4.281206227     9.540593666    -0.080638051
 C       -3.492544701    10.678959937     0.129198694
 C       -2.118238507    10.521892874     0.335456957
 C       -1.546404040     9.250501370     0.331478427
Si       -4.297796076    12.330325863     0.105921846
 C       -3.070551841    13.686918036     0.126691311
 C       -3.083953206    14.737199942     0.956219547
 C       -2.085143183    15.809282989     0.948194778
 C       -2.227623839    16.850841070     1.879899111
 C       -1.317206427    17.892529560     1.922819187
 C       -0.242170913    17.926653405     1.014675514
 C       -0.085140151    16.887027443     0.092744219
 C       -0.991332008    15.828099290     0.079893086
 N        0.635889373    19.048164227     1.149750284
 C        0.103717084    20.291888003     0.554535379
 C        2.032366213    18.769754629     0.769426028
 C        0.149629343    20.435811851    -0.979584370
 C       -1.005933065    19.746772780    -1.723171375
 N       -2.346950688    20.095829469    -1.175609943
 C       -3.343998279    19.288459117    -1.818169881
 C       -3.349378302    17.919659398    -1.496668135
 C       -4.276991113    17.068031689    -2.070547964
 C       -5.264194512    17.563384904    -2.937430292
 C       -5.272451385    18.927647183    -3.232918785
 C       -4.324233282    19.788021337    -2.683431888
 C       -2.619006950    21.544771160    -1.214286730
 C       -6.220024062    16.617643362    -3.516302794
 C       -7.209650814    16.951427027    -4.355566718
Si       -8.376978025    15.723695801    -5.049237936
 C       -7.537262006    14.093155014    -5.205294637
 C       -6.301683127    14.048347158    -5.867921193
 C       -5.623053909    12.843192521    -6.014747562
 C       -6.159721598    11.650333140    -5.508051332
 C       -7.392602472    11.696932180    -4.853347137
 C       -8.076706772    12.904992610    -4.706114975
 C       -5.402050878    10.418156547    -5.692609245
 C       -5.781262145     9.200796417    -5.268347062
 C       -4.999849962     7.983630520    -5.468391271
 C       -3.769214190     7.985192479    -6.130603099
 C       -3.049447610     6.803498730    -6.303908675
 C       -3.544275752     5.590089919    -5.815645412
 C       -4.776793893     5.586300420    -5.148211927
 C       -5.492898258     6.768153685    -4.975671226
Si       -2.599037345     4.025487309    -6.040919696
 C       -1.045145650     4.299190666    -7.037492429
 C       -2.094695710     3.294819919    -4.358352748
 C       -3.741819532     2.781027794    -6.917791286
 C       -9.880280356    15.615593959    -3.884597158
 C       -8.977868025    16.306672719    -6.755142009
 C       -5.291337886    12.481489107    -1.510916614
 C       -5.466700892    12.466495104     1.601706586
 C       -0.663187454    -0.864627983    -1.562542386
 C       -0.607309206    -0.949310637     1.532573179
 H        1.226107624     2.725879839     0.329879933
 H        0.274899698     4.962331968     0.325200228
 H       -3.653965605     3.335399501    -0.336793505
 H       -2.749362567     1.076190517    -0.311705047
 H       -3.447549927     5.639896123    -0.191620863
 H       -0.620485247     6.803950145     0.302975498
 H       -4.344020123     7.402103573    -0.231509479
 H       -5.359137748     9.602405710    -0.259585556
 H       -1.457835340    11.376796148     0.507026489
 H       -0.475050976     9.146335233     0.490169613
 H       -2.280438947    13.575281073    -0.635012864
 H       -3.862862509    14.883160549     1.716741113
 H       -3.066534873    16.844224751     2.575656620
 H       -1.426833089    18.697838236     2.647743063
 H        0.742431077    16.894215996    -0.609801999
 H       -0.847258125    15.017159661    -0.634282990
 H        2.658436224    19.623888425     1.078562369
 H        2.194064381    18.590280154    -0.303996812
 H        2.385410349    17.884565850     1.327009337
 H       -1.931778792    22.050672870    -0.514735839
 H       -3.643236860    21.733162362    -0.847494710
 H       -2.505238098    22.004564324    -2.207285631
 H       -2.616717176    17.537325326    -0.783920171
 H       -4.252131383    16.004711907    -1.821426589
 H       -6.027127084    19.334346293    -3.905279070
 H       -4.349695893    20.840734053    -2.945985374
 H       -6.030882701    15.576754753    -3.207340652
 H       -7.386778441    17.994068479    -4.654038710
 H       -5.828184533    14.948552019    -6.275397999
 H       -4.664918843    12.828083408    -6.531340607
 H       -7.831419801    10.785664927    -4.452013832
 H       -9.041757435    12.877473896    -4.193299034
 H       -4.453909921    10.546065436    -6.225354558
 H       -6.723992577     9.062306859    -4.733120778
 H       -3.357982153     8.915497308    -6.518488708
 H       -2.092532050     6.870539610    -6.829029269
 H       -5.211924177     4.668002718    -4.744105626
 H       -6.446089250     6.744443181    -4.451804101
 H       -0.954189296    20.401181391     0.901536052
 H        0.677280421    21.127812249     1.016965691
 H        0.158841264    21.514823196    -1.229165827
 H        1.104908220    20.037325715    -1.371533095
 H       -0.935546508    19.982837623    -2.807908421
 H       -0.883711341    18.641217506    -1.622501540
 H        2.263244088    -1.029910828    -0.031686880
 H        2.273483869     0.485948077     0.903547498
 H        2.262745948     0.535796947    -0.880993850
 H       -0.498275255     3.351555299    -7.188942673
 H       -0.358639264     5.002141211    -6.532951136
 H       -1.277764462     4.710029187    -8.035891357
 H       -1.413076782     2.427965289    -4.602084003
 C       -1.305210631     4.291059069    -3.492356611
 C       -3.275349908     2.750138383    -3.535844645
 H       -4.641931998     2.665391177    -6.246356195
 C       -4.237446597     3.293325684    -8.282206214
 C       -3.108721335     1.390395039    -7.103778468
 H      -10.515636215    14.769830022    -4.276703415
 C       -9.491888231    15.291424195    -2.430364422
 C      -10.739133245    16.893559775    -3.887964840
 H       -9.493449226    17.295150818    -6.577833026
 C       -7.828552356    16.545910081    -7.750350910
 C       -9.995413427    15.343436971    -7.391549019
 H       -5.689950203    11.446094897    -1.723995887
 C       -6.493792103    13.434726901    -1.437229372
 C       -4.394623469    12.891990064    -2.691701994
 H       -5.909968744    13.503415469     1.549732894
 C       -6.625742691    11.453213279     1.585434300
 C       -4.721749775    12.325592671     2.942304775
 H       -1.785416469    -0.895170695    -1.443740894
 C       -0.348903987    -0.080946034    -2.849952843
 C       -0.166023586    -2.312090298    -1.720756657
 H       -0.093060780    -1.953091992     1.489399939
 C       -0.201453066    -0.261141711     2.848969194
 C       -2.126361294    -1.196108974     1.554839790
 H       -0.391986716     4.663789147    -3.971415589
 H       -0.985344194     3.805254886    -2.555831265
 H       -1.901163371     5.164064501    -3.188249164
 H       -3.873510639     1.999994559    -4.066382712
 H       -3.951312745     3.542639108    -3.187708565
 H       -2.894474841     2.253979276    -2.628707812
 H       -4.755305922     4.261044266    -8.219586122
 H       -4.961492015     2.585743413    -8.710355483
 H       -3.431715284     3.395975270    -9.020915130
 H       -2.793031633     0.927060880    -6.159843366
 H       -2.241589175     1.402235406    -7.777231625
 H       -3.838483496     0.703078432    -7.555215113
 H       -8.944120915    14.345531854    -2.324456811
 H      -10.395898371    15.193332355    -1.812815816
 H       -8.883641169    16.079341989    -1.958757142
 H      -11.141097733    17.147597971    -4.876974927
 H      -10.199697645    17.772241143    -3.507854294
 H      -11.610869036    16.761920207    -3.230647549
 H       -7.063578863    17.240305188    -7.377272455
 H       -8.220301662    16.988575729    -8.677332950
 H       -7.322033203    15.616439836    -8.046804800
 H      -10.894352235    15.191256480    -6.780398822
 H       -9.569724201    14.353355442    -7.609405455
 H      -10.343188492    15.745027836    -8.354314990
 H       -7.217969484    13.170970565    -0.657179119
 H       -7.041939007    13.398470841    -2.393026248
 H       -6.211421878    14.483490033    -1.282459016
 H       -3.576306170    12.184872076    -2.882658510
 H       -3.959560451    13.894021044    -2.582784118
 H       -4.990860979    12.918837266    -3.617828238
 H       -7.218334601    11.472554406     0.662049631
 H       -7.325425564    11.672225072     2.404733380
 H       -6.286534097    10.419761131     1.743565622
 H       -3.899124276    13.042219306     3.069370830
 H       -4.302921764    11.319985499     3.092347942
 H       -5.413902165    12.498085003     3.778251978
 H       -0.734806063     0.949847332    -2.835119334
 H       -0.818173914    -0.571889926    -3.714275238
 H        0.725375802    -0.027805225    -3.069673582
 H       -0.414531317    -2.953776025    -0.865673145
 H        0.918061676    -2.377099994    -1.882897956
 H       -0.635998409    -2.776750592    -2.599730780
 H        0.882311175    -0.121624998     2.953180781
 H       -0.515998024    -0.873037342     3.706591986
 H       -0.677056888     0.721398369     2.981375496
 H       -2.493272990    -1.742441350     0.676941231
 H       -2.707601010    -0.267716574     1.644147278
 H       -2.393460027    -1.808045440     2.428941183

