187   

Si        0.000000000     0.000000000     0.000000000
 C        1.866415048     0.000000000     0.000000000
 C       -0.620823000     1.733823015     0.000000000
 C       -0.160541319     2.628386684    -0.974392249
 C       -0.613308238     3.946378919    -0.998310632
 C       -1.544889184     4.397626425    -0.059711318
 C       -2.009139045     3.500074185     0.910326649
 C       -1.553408145     2.184559189     0.941072378
 C       -2.049455309     5.765342309    -0.042204162
 C       -1.693580723     6.736416013    -0.900423369
 C       -2.219962621     8.097009413    -0.853206050
 C       -3.152569781     8.494794856     0.110006108
 C       -3.639023882     9.798889704     0.133231993
 C       -3.193213828    10.743291424    -0.801232669
 C       -2.255140097    10.351600676    -1.761469312
 C       -1.775069592     9.042834338    -1.784163436
Si       -3.883515508    12.442105444    -0.703501498
 C       -3.502600939    13.570920475    -2.086082051
 C       -3.280945575    13.268094251    -3.371724231
 C       -2.983133233    14.283326778    -4.386155697
 C       -2.761695939    13.892327295    -5.714885763
 C       -2.477921293    14.825936645    -6.698430221
 C       -2.396083555    16.200017269    -6.380970684
 C       -2.639290856    16.594107974    -5.052489381
 C       -2.951192062    15.647234193    -4.085654244
 N       -2.106733951    17.130255853    -7.395650444
 C       -1.089322225    16.741524868    -8.393830347
 C       -2.030495954    18.545849939    -7.001793653
 C        0.190531125    16.099026833    -7.834194783
 C        1.156356872    17.080476276    -7.139825334
 N        1.570961854    16.721312686    -5.760275999
 C        1.767463145    15.312296374    -5.595009327
 C        2.973908933    14.787092071    -6.085442157
 C        3.235382527    13.430908754    -5.961612777
 C        2.304280659    12.569913095    -5.361692178
 C        1.111454836    13.103213760    -4.865820285
 C        0.848031686    14.465040593    -4.963625195
 C        0.733801132    17.335509780    -4.715375361
 C        2.635869675    11.146572561    -5.258894855
 C        1.834674783    10.225033657    -4.709627026
Si        2.228207692     8.445103053    -4.571035964
 C        1.956929246     7.840668541    -2.858912763
 C        1.595345201     8.699312323    -1.815255002
 C        1.398839141     8.199374778    -0.528832232
 C        1.586124029     6.839872735    -0.253177305
 C        1.955404982     5.987311519    -1.298994479
 C        2.133743012     6.478398296    -2.588980548
 C        1.372663346     6.346534449     1.103559326
 C        1.511013859     5.056421834     1.452165691
 C        1.310144373     4.513581193     2.788829212
 C        0.941535935     5.298894406     3.882852098
 C        0.762972412     4.723731210     5.141717967
 C        0.954428063     3.351830121     5.329162718
 C        1.330337885     2.563535864     4.232930522
 C        1.509273163     3.139469857     2.980138625
Si        0.728755162     2.557308830     6.972415779
 C       -0.072163496     3.714339439     8.195950124
 C       -0.353634480     1.011947370     6.705074036
 C        2.414333094     2.004183005     7.660645892
 C        1.039130264     7.484438657    -5.707917309
 C        4.020051588     8.119293498    -5.116441661
 C       -5.775642307    12.318220491    -0.538095065
 C       -3.169529586    13.283855544     0.852501076
 C       -0.648778275    -0.904080822    -1.543632538
 C       -0.647941493    -0.931460161     1.530912416
 H        0.566196665     2.333017828    -1.736298488
 H       -0.241355160     4.626598696    -1.764162058
 H       -2.727664726     3.833719705     1.656566539
 H       -1.952021814     1.533854492     1.723970664
 H       -2.771825397     5.968321940     0.754956993
 H       -0.960964013     6.549260478    -1.691629286
 H       -3.510932742     7.782674540     0.851346908
 H       -4.375137942    10.042562895     0.905046992
 H       -1.864841266    11.050702972    -2.507030481
 H       -1.040422426     8.753908460    -2.535809660
 H       -3.479944794    14.625489783    -1.754735648
 H       -3.304815405    12.244086569    -3.761855853
 H       -2.811974532    12.835489518    -5.982207185
 H       -2.331313962    14.498178701    -7.724280622
 H       -2.610623681    17.640896425    -4.767279670
 H       -3.154375440    15.986997044    -3.068148642
 H       -1.902371201    19.173410682    -7.900256553
 H       -1.212109095    18.770331790    -6.298855491
 H       -2.990030502    18.847426311    -6.542294014
 H        0.833321782    18.431479970    -4.785461086
 H        1.116843945    17.036299213    -3.723315430
 H       -0.332480744    17.070090778    -4.768370569
 H        3.696728537    15.453660709    -6.551760611
 H        4.177127525    13.032753062    -6.337425083
 H        0.375441390    12.454519773    -4.388528724
 H       -0.089338697    14.858758719    -4.570758042
 H        3.623003633    10.905915898    -5.674998826
 H        0.844842386    10.498412557    -4.306647178
 H        1.456595338     9.773984389    -1.968643659
 H        1.098114656     8.876848956     0.268837906
 H        2.113351760     4.926300551    -1.108490195
 H        2.411296370     5.760274137    -3.365767588
 H        1.083999774     7.103149770     1.836144438
 H        1.784388124     4.306366900     0.700347143
 H        0.784675715     6.368534095     3.757848402
 H        0.470519639     5.384856052     5.961203398
 H        1.501469976     1.486814614     4.323122369
 H        1.801815019     2.514921931     2.137528227
 H       -1.585157808    16.020355308    -9.089528552
 H       -0.832751108    17.628287276    -9.013493398
 H       -0.087532099    15.276276457    -7.141772759
 H        0.722704766    15.587062835    -8.659323264
 H        2.102371106    17.143058302    -7.728795782
 H        0.734861500    18.106461211    -7.130396904
 H        2.263725161    -1.029046965    -0.044352013
 H        2.263597651     0.470273040     0.918135127
 H        2.274529829     0.554576673    -0.862830423
 H       -0.236432923     3.216060503     9.167831684
 H       -1.055888523     4.059690674     7.829830393
 H        0.550823397     4.607111205     8.380903760
 H        0.243246120     0.332315689     6.028996245
 C       -0.655041645     0.240365195     8.001332997
 C       -1.679134108     1.334694976     5.991195345
 H        2.200522745     1.584552716     8.685970176
 C        3.094556331     0.901986541     6.828711002
 C        3.397942972     3.178048403     7.820737328
 H        1.356991196     6.403740902    -5.641997537
 C       -0.426891212     7.574707733    -5.247417840
 C        1.132856904     7.921945093    -7.179506384
 H        4.135935935     8.648352417    -6.107408167
 C        5.043333033     8.713973451    -4.131341732
 C        4.358138788     6.634751120    -5.340058049
 H       -5.969356010    11.747362086     0.415428276
 C       -6.467525544    13.687609239    -0.421886378
 C       -6.407492965    11.532570233    -1.700736134
 H       -3.631005972    14.312533628     0.885108286
 C       -3.516624907    12.567925277     2.168270871
 C       -1.641115612    13.444645569     0.759957341
 H       -0.243973930    -1.955004832    -1.472926419
 C       -2.185599847    -0.984698859    -1.587544508
 C       -0.150331487    -0.295545857    -2.866887857
 H       -1.767432489    -0.785242927     1.526097719
 C       -0.374308649    -2.446318997     1.487450356
 C       -0.099655640    -0.373266205     2.856556286
 H        0.247987050    -0.085361123     8.533607218
 H       -1.222628166    -0.673091106     7.772010364
 H       -1.269963885     0.813747049     8.707599485
 H       -1.537838113     1.838277965     5.023337755
 H       -2.349464624     1.961041360     6.594063723
 H       -2.229516965     0.407149865     5.779803323
 H        2.487716141    -0.006648423     6.728894378
 H        4.031785332     0.591715954     7.313281194
 H        3.370251742     1.239282756     5.819455659
 H        3.021911468     3.977241801     8.472377779
 H        3.675736933     3.635736964     6.860146415
 H        4.334587188     2.825849134     8.276026480
 H       -0.583158932     7.200744840    -4.225279537
 H       -1.063485393     6.956174874    -5.896313985
 H       -0.833575228     8.593686715    -5.301196502
 H        2.138824673     7.812369504    -7.604637734
 H        0.818026822     8.963466559    -7.337090318
 H        0.469450998     7.303144557    -7.800317856
 H        4.908910365     9.789834889    -3.952253049
 H        6.062406948     8.590844102    -4.523804096
 H        5.028653070     8.216321990    -3.150686995
 H        3.702565561     6.141167693    -6.068183209
 H        4.337759077     6.047072151    -4.412134908
 H        5.380130748     6.540131529    -5.735977314
 H       -6.114750728    14.283965109     0.428980352
 H       -7.548389942    13.550162668    -0.273140321
 H       -6.358728166    14.298695206    -1.329044755
 H       -6.008286619    10.513594449    -1.804385892
 H       -6.289858441    12.034820953    -2.671543424
 H       -7.489158388    11.423096662    -1.538907568
 H       -4.595582328    12.460485589     2.335965394
 H       -3.129563352    13.143659087     3.021733039
 H       -3.061767715    11.569847052     2.243476693
 H       -1.311802641    13.998829803    -0.130379992
 H       -1.109904982    12.481505343     0.763935547
 H       -1.267407979    14.005403032     1.628090822
 H       -2.621002917    -1.495309666    -0.719050403
 H       -2.508128091    -1.553024193    -2.471754040
 H       -2.662698583     0.002888950    -1.666627071
 H        0.942908486    -0.234659370    -2.936010343
 H       -0.558139044     0.708349945    -3.052766748
 H       -0.476612786    -0.918787272    -3.712086609
 H       -0.831237807    -2.946340177     0.623927708
 H       -0.799045212    -2.930150164     2.379046981
 H        0.695922684    -2.690425749     1.486381319
 H       -0.251443384     0.710557607     2.973604004
 H        0.971528332    -0.574876534     2.989780008
 H       -0.612714459    -0.845931598     3.706492596

