187   

Si        0.000000000     0.000000000     0.000000000
 C        1.865289240     0.000000000     0.000000000
 C       -0.661075822     1.718663679     0.000000000
 C        0.024431477     2.729482979    -0.683776813
 C       -0.462437835     4.035764270    -0.693696686
 C       -1.647610475     4.361857845    -0.028182800
 C       -2.336728644     3.347504855     0.648889241
 C       -1.853180442     2.041380243     0.660028935
 C       -2.193640298     5.715023470    -0.012278738
 C       -1.631156086     6.772769280    -0.621157770
 C       -2.173854340     8.127054969    -0.607616708
 C       -3.358034990     8.458753510     0.055919639
 C       -3.840137258     9.767498648     0.042410499
 C       -3.156270695    10.769476002    -0.652589276
 C       -1.970508633    10.438860568    -1.322864590
 C       -1.484473897     9.134854654    -1.295423690
Si       -3.759263787    12.507322697    -0.694701031
 C       -3.457560309    13.276986021    -2.325656057
 C       -3.431212566    12.593136200    -3.477751017
 C       -3.191181098    13.194544158    -4.790006719
 C       -3.189233718    12.365345732    -5.921912366
 C       -2.967488182    12.881514374    -7.187195640
 C       -2.689852154    14.255313355    -7.359915313
 C       -2.690767900    15.087614484    -6.225860647
 C       -2.959937708    14.560452410    -4.968386043
 N       -2.468468514    14.752541648    -8.658245236
 C       -1.675049536    13.898914004    -9.560758963
 C       -2.134921620    16.180693530    -8.781273509
 C       -0.282262320    13.537031699    -9.004978742
 C        0.717212036    13.210900861   -10.129495527
 N        1.584382823    14.342873181   -10.531418141
 C        0.861022094    15.487451853   -10.966066710
 C        0.068193146    15.350762336   -12.123294617
 C       -0.660573488    16.428150570   -12.598260149
 C       -0.597600159    17.678532166   -11.962712617
 C        0.209691211    17.814753200   -10.831874562
 C        0.940242633    16.738261868   -10.338212028
 C        2.657323416    14.601031950    -9.554578300
 C       -1.389237990    18.783372027   -12.507636226
 C       -1.411575827    20.018846312   -11.990096249
Si       -2.403403239    21.394151473   -12.676770536
 C       -2.626922294    21.232254547   -14.494531525
 C       -1.593935248    20.694135822   -15.273657242
 C       -1.744129038    20.563449311   -16.651391140
 C       -2.922815646    20.976661483   -17.286601269
 C       -3.948106453    21.520028619   -16.507765639
 C       -3.802455355    21.648907997   -15.126779773
 C       -3.032574378    20.819005828   -18.733036911
 C       -4.105647877    21.169865813   -19.461937482
 C       -4.215318339    21.012166759   -20.908416215
 C       -3.190549473    20.468988874   -21.687474587
 C       -3.337837456    20.336476569   -23.068159068
 C       -4.514099719    20.750365969   -23.700958408
 C       -5.543599132    21.295693728   -22.921764671
 C       -5.395578829    21.421978274   -21.543399422
Si       -4.724246272    20.582369165   -25.522138369
 C       -3.104503881    20.209746487   -26.368975195
 C       -5.946287938    19.170155909   -25.890145860
 C       -5.457796162    22.206370562   -26.191458803
 C       -4.091058511    21.410629878   -11.798714937
 C       -1.504287017    23.029315050   -12.311070698
 C       -5.622582551    12.575522975    -0.316721043
 C       -2.831553988    13.510525048     0.628848242
 C       -0.633439603    -0.896599086    -1.554978908
 C       -0.645873490    -0.933900874     1.528104042
 H        0.956403262     2.536065875    -1.222478351
 H        0.092315263     4.804263613    -1.228916125
 H       -3.262587540     3.578933208     1.172195270
 H       -2.436814041     1.292568431     1.202389800
 H       -3.127039404     5.825663329     0.547141545
 H       -0.697426118     6.660547129    -1.180289157
 H       -3.914219852     7.694396013     0.595088642
 H       -4.766433218     9.967633618     0.587695593
 H       -1.395241717    11.183143404    -1.884224396
 H       -0.560158247     8.897491123    -1.818518960
 H       -3.313344375    14.367072402    -2.303137162
 H       -3.581169208    11.504523883    -3.523984904
 H       -3.378175562    11.297164882    -5.807209932
 H       -3.009186367    12.222690179    -8.049954897
 H       -2.485531329    16.149332154    -6.316266995
 H       -2.970844418    15.229691876    -4.107139887
 H       -2.054567811    16.452895498    -9.850942143
 H       -1.187947782    16.459869682    -8.292841630
 H       -2.956579562    16.785867580    -8.358948750
 H        3.264832691    13.684943920    -9.448181353
 H        2.303389079    14.900022693    -8.555767308
 H        3.327510582    15.386359380    -9.946236576
 H        0.041119372    14.396502503   -12.645410287
 H       -1.280349562    16.305595842   -13.487620827
 H        0.279291449    18.777663590   -10.324224182
 H        1.555516618    16.877301362    -9.454336109
 H       -1.966252953    18.502743533   -13.400567724
 H       -0.830716041    20.274559150   -11.091032039
 H       -0.649362534    20.358229568   -14.832396841
 H       -0.933585465    20.137154090   -17.239716053
 H       -4.873762431    21.849276371   -16.976061776
 H       -4.639056248    22.081704485   -14.571498362
 H       -2.153330786    20.379548292   -19.213260357
 H       -4.985083666    21.609398944   -18.982022137
 H       -2.263455922    20.142453178   -21.219841911
 H       -2.501648366    19.903787356   -23.624356361
 H       -6.485115903    21.636618594   -23.361663108
 H       -6.206891967    21.846387930   -20.955015171
 H       -2.258910657    12.975039971    -9.772411032
 H       -1.582792738    14.424710482   -10.539514429
 H        0.101330644    14.368717446    -8.383406108
 H       -0.371199166    12.681540065    -8.309658603
 H        1.379289183    12.370979754    -9.820684915
 H        0.184360775    12.852610326   -11.038656487
 H        2.263666338    -1.028563940     0.057908151
 H        2.258244900     0.559048983     0.869063592
 H        2.277553053     0.466403786    -0.911467577
 H       -3.231719428    20.156040986   -27.465034454
 H       -2.680632298    19.246129465   -26.036135665
 H       -2.357798159    20.997365856   -26.160221594
 H       -5.983702723    19.085247235   -27.014724360
 C       -5.473158976    17.818361700   -25.324818879
 C       -7.374632735    19.442630488   -25.385524355
 H       -6.449335739    22.336763028   -25.667749209
 C       -4.584610030    23.429317281   -25.856961415
 C       -5.725552275    22.180759459   -27.706773140
 H       -4.654192788    22.293157689   -12.219193446
 C       -4.909171248    20.138419502   -12.083936990
 C       -3.980377429    21.600047311   -10.275225764
 H       -1.401420892    23.086272582   -11.189068730
 C       -0.092578149    23.067808120   -12.923238291
 C       -2.288216900    24.266114084   -12.783059689
 H       -5.752625261    12.110117944     0.702716744
 C       -6.177482045    14.010024727    -0.257121224
 C       -6.453471755    11.762594758    -1.325776623
 H       -3.240824811    14.560071135     0.567924482
 C       -3.065607260    12.987619450     2.056790897
 C       -1.316990546    13.572509023     0.360811277
 H       -0.174109618    -1.926581113    -1.525643667
 C       -2.164327127    -1.055192080    -1.580053658
 C       -0.186125330    -0.211737068    -2.859278858
 H       -1.772142370    -0.903958022     1.457288269
 C       -0.219005006    -2.412476842     1.568574275
 C       -0.235853442    -0.260706683     2.850603230
 H       -4.491655265    17.506071051   -25.704004881
 H       -6.178431760    17.023923292   -25.608138260
 H       -5.424200919    17.808391597   -24.226397390
 H       -7.821089425    20.351072927   -25.809160044
 H       -7.433457599    19.515836949   -24.290407040
 H       -8.038120513    18.613539549   -25.671958970
 H       -4.394407742    23.545463454   -24.780329418
 H       -5.087605989    24.351623207   -26.180848298
 H       -3.611203314    23.413620129   -26.364853614
 H       -6.401859310    21.373150463   -28.015342471
 H       -4.807387237    22.094222982   -28.302761583
 H       -6.206276220    23.119477874   -28.018641454
 H       -5.081601048    19.959769565   -13.154354029
 H       -5.903481439    20.217311018   -11.622020693
 H       -4.447134279    19.230718825   -11.668420001
 H       -3.472654157    22.529084595    -9.986634540
 H       -3.465908289    20.766339941    -9.777080712
 H       -4.984849851    21.650315320    -9.830074840
 H        0.551647481    22.243424521   -12.588673213
 H        0.419164506    23.996398720   -12.632579593
 H       -0.103503770    23.055647034   -14.022851730
 H       -3.276858153    24.360525087   -12.315962162
 H       -2.429219521    24.293685908   -13.873267728
 H       -1.737765492    25.182153177   -12.523344654
 H       -5.688756543    14.635810368     0.500300468
 H       -7.245015371    13.988915979     0.005671097
 H       -6.109913122    14.534151077    -1.220882668
 H       -6.156750877    10.706572495    -1.388075226
 H       -6.411175803    12.176362108    -2.344170020
 H       -7.513133113    11.768387004    -1.034610145
 H       -4.120592415    13.002882970     2.358889814
 H       -2.529814554    13.618023439     2.781164224
 H       -2.690087913    11.964952919     2.205312757
 H       -1.064940616    13.987012667    -0.624819125
 H       -0.828816619    12.590725558     0.443416097
 H       -0.829052027    14.220863267     1.102267908
 H       -2.557332488    -1.624960801    -0.728433765
 H       -2.470980504    -1.603047470    -2.482845896
 H       -2.693391592    -0.091989025    -1.611962868
 H        0.903933951    -0.132637021    -2.958684179
 H       -0.607622870     0.796887136    -2.977856399
 H       -0.531795687    -0.792386184    -3.726653401
 H       -0.544775682    -2.983234904     0.689375474
 H       -0.669388707    -2.909009694     2.440418795
 H        0.866604053    -2.542990529     1.668689101
 H       -0.542573165     0.792650060     2.918000657
 H        0.846483603    -0.300433554     3.033025998
 H       -0.710955676    -0.774406979     3.698453585

