187   

Si        0.000000000     0.000000000     0.000000000
 C        1.865294504     0.000000000     0.000000000
 C       -0.665990075     1.716653247     0.000000000
 C        0.085618531     2.769041727    -0.533729105
 C       -0.416171874     4.070029136    -0.535081319
 C       -1.681180942     4.348616494    -0.010511354
 C       -2.435613201     3.292472876     0.517106501
 C       -1.937360898     1.992243853     0.519679544
 C       -2.246070988     5.693910247     0.008952535
 C       -1.627913926     6.789350189    -0.464045277
 C       -2.190499356     8.135494275    -0.445775940
 C       -3.455046397     8.417214396     0.078033408
 C       -3.953810190     9.719736649     0.075038854
 C       -3.203544075    10.766540471    -0.469447822
 C       -1.936436948    10.486537440    -0.998938980
 C       -1.435983355     9.187686066    -0.981730657
Si       -3.830099253    12.496150490    -0.490259504
 C       -3.294640003    13.391832344    -1.991106942
 C       -3.067999641    12.805456071    -3.174367827
 C       -2.639320762    13.519124140    -4.377847770
 C       -2.434421889    12.792039908    -5.559392278
 C       -2.028676941    13.418878819    -6.726099920
 C       -1.856923683    14.819703836    -6.763186506
 C       -2.062204373    15.550092225    -5.576884740
 C       -2.424462749    14.899517243    -4.404484809
 N       -1.444505879    15.444812785    -7.953924800
 C       -1.908166049    14.847386928    -9.219700880
 C       -1.466341036    16.917654855    -7.973387185
 C       -3.441223797    14.844615305    -9.361687143
 C       -3.912466152    14.649193056   -10.812041927
 N       -3.472332331    15.678087722   -11.784784576
 C       -3.354257550    16.986387223   -11.258268347
 C       -4.485849821    17.546515385   -10.628842740
 C       -4.425882374    18.822965361   -10.096267917
 C       -3.256740025    19.593291672   -10.195431840
 C       -2.148336172    19.044552724   -10.843333256
 C       -2.192016332    17.763085339   -11.382103101
 C       -2.374963102    15.222112515   -12.653996817
 C       -3.245012003    20.938088886    -9.615241302
 C       -2.185228839    21.755490255    -9.653347381
Si       -2.099596845    23.441271253    -8.952375340
 C       -0.581470586    23.568901931    -7.921315812
 C       -0.035944437    22.415225392    -7.346980450
 C        1.113977638    22.492415754    -6.562681639
 C        1.735063264    23.721831831    -6.324467546
 C        1.181540726    24.875834740    -6.894760758
 C        0.035924987    24.802429582    -7.683335303
 C        2.939447958    23.848184361    -5.510125936
 C        3.565987724    22.821964659    -4.909889970
 C        4.770182240    22.943838083    -4.094955763
 C        5.399348944    24.168391453    -3.856919853
 C        6.549628894    24.238165902    -3.070928582
 C        7.092969363    23.082536924    -2.501142522
 C        6.463316567    21.852987649    -2.738080911
 C        5.318157372    21.785886506    -3.526497305
Si        8.610435725    23.156655347    -1.461256654
 C        9.045017950    24.912199614    -1.004182138
 C        8.306584468    22.122683167     0.107698294
 C       10.070991438    22.395464216    -2.415760688
 C       -2.026634538    24.695427612   -10.379574524
 C       -3.617969440    23.824933539    -7.875230825
 C       -5.730826814    12.513086038    -0.408081603
 C       -3.145904796    13.411603967     1.030682232
 C       -0.631009199    -0.904383290    -1.551075739
 C       -0.649623703    -0.921726311     1.533884610
 H        1.081632085     2.613599742    -0.957640943
 H        0.190752651     4.871703596    -0.951991987
 H       -3.423788405     3.487141801     0.929596836
 H       -2.572916801     1.209435620     0.942628929
 H       -3.244721828     5.764667296     0.449514762
 H       -0.628853952     6.717611783    -0.904304773
 H       -4.062132099     7.618013424     0.498682164
 H       -4.945398486     9.879152679     0.507002985
 H       -1.306069336    11.267699597    -1.437956780
 H       -0.448181714     8.989708654    -1.393711091
 H       -3.183324090    14.478885725    -1.862296210
 H       -3.180750526    11.723059576    -3.331391390
 H       -2.584876925    11.711606828    -5.559924948
 H       -1.845367577    12.821526165    -7.614158649
 H       -1.933489694    16.627691677    -5.558854988
 H       -2.560432361    15.487372569    -3.495522455
 H       -1.167104940    17.290539346    -8.969490543
 H       -0.724274883    17.299696068    -7.249357022
 H       -2.454328977    17.348932888    -7.741522648
 H       -2.681841456    14.285438378   -13.152435979
 H       -1.421729355    15.043777339   -12.132900115
 H       -2.209841754    15.965457572   -13.454752073
 H       -5.406564399    16.970294145   -10.569707898
 H       -5.305867161    19.237826956    -9.603579156
 H       -1.229582971    19.625866351   -10.939674080
 H       -1.311294658    17.371344574   -11.881547977
 H       -4.195362831    21.214863695    -9.141372199
 H       -1.247632487    21.448066471   -10.147391442
 H       -0.481937615    21.425744493    -7.493932370
 H        1.524568766    21.580590431    -6.132424155
 H        1.650078710    25.842696736    -6.721081144
 H       -0.350810968    25.734683320    -8.103420216
 H        3.320645342    24.868587960    -5.411012725
 H        3.183441980    21.801680407    -5.009447628
 H        4.994542125    25.082897591    -4.286309297
 H        6.997142625    25.224460465    -2.920151608
 H        6.842377351    20.917005893    -2.317725923
 H        4.843690752    20.821726865    -3.699789518
 H       -1.438882863    15.416542037   -10.054427370
 H       -1.503833322    13.813769817    -9.295516006
 H       -3.874461157    14.049091051    -8.723585326
 H       -3.852288503    15.790191562    -8.953121909
 H       -3.605069454    13.644814231   -11.175468120
 H       -5.029724197    14.657824073   -10.834801002
 H        2.263490960    -1.028255385     0.065812704
 H        2.258963805     0.565264001     0.864592002
 H        2.276881991     0.458065214    -0.916109811
 H        9.929096773    24.943877546    -0.342499839
 H        8.211539560    25.400201845    -0.467068719
 H        9.275033774    25.521675557    -1.895627619
 H        8.098072712    21.072257548    -0.249666039
 C        9.521386630    22.066818696     1.050959833
 C        7.076996879    22.601978345     0.900314750
 H       10.974355752    22.538928145    -1.754971324
 C        9.914505716    20.888843518    -2.688075361
 C       10.338597833    23.112456598    -3.751955176
 H       -1.988901874    25.714842724    -9.896791721
 C       -0.764255845    24.532454855   -11.244841305
 C       -3.267736890    24.645091867   -11.287883894
 H       -4.519286257    23.631971399    -8.526236490
 C       -3.710150458    22.906986733    -6.642378405
 C       -3.674618152    25.289713346    -7.405980214
 H       -6.008515366    11.985014158     0.549373307
 C       -6.322750433    13.932952933    -0.354917590
 C       -6.373121717    11.749596257    -1.580320203
 H       -3.563331390    14.458373553     0.979246028
 C       -3.590163130    12.784071535     2.363353818
 C       -1.609793998    13.508623851     1.010559484
 H       -0.165878727    -1.931683386    -1.520189524
 C       -2.160947964    -1.072409849    -1.575027391
 C       -0.188437655    -0.219803676    -2.857250950
 H       -1.774894234    -0.920757999     1.443861653
 C       -0.186945965    -2.387901650     1.609468344
 C       -0.280774591    -0.212271107     2.849428524
 H       10.424437308    21.664945430     0.573573357
 H        9.304546052    21.405831757     1.902840459
 H        9.776559241    23.045042071     1.479567081
 H        6.153837032    22.614559659     0.303308569
 H        7.206619904    23.604152780     1.329890941
 H        6.886170051    21.925372810     1.745561728
 H        9.793634486    20.290424424    -1.776250226
 H       10.813950224    20.503017291    -3.189953755
 H        9.071693582    20.661543562    -3.355906545
 H       10.546918986    24.184082634    -3.638465844
 H        9.508983512    23.008745174    -4.466083398
 H       11.221831817    22.678264228    -4.242096009
 H        0.170251855    24.597134007   -10.669775819
 H       -0.717240947    25.332864623   -11.997070143
 H       -0.746270418    23.585746631   -11.802008027
 H       -4.206313456    24.844238184   -10.754742304
 H       -3.378786658    23.683404127   -11.809078737
 H       -3.191519076    25.411831547   -12.072264000
 H       -3.714239192    21.836552051    -6.889008288
 H       -4.643756400    23.101915266    -6.096025321
 H       -2.893634895    23.075282636    -5.925084214
 H       -3.719709692    26.010581215    -8.232281386
 H       -2.827224987    25.567205603    -6.763063827
 H       -4.580485370    25.456688760    -6.804932718
 H       -5.973835085    14.518925278     0.504891997
 H       -7.417378082    13.880260875    -0.265480723
 H       -6.117489826    14.515511161    -1.264025188
 H       -6.044668302    10.703622414    -1.653712648
 H       -6.181358491    12.223615483    -2.554066443
 H       -7.465128472    11.722014805    -1.460432289
 H       -4.679483467    12.766507189     2.495227733
 H       -3.188564162    13.365982553     3.205636942
 H       -3.220400555    11.757374143     2.497811622
 H       -1.214862078    13.995094627     0.108078226
 H       -1.119119351    12.528800476     1.101389956
 H       -1.258510093    14.107669745     1.862626155
 H       -2.548981837    -1.648015888    -0.725102909
 H       -2.464949866    -1.619250033    -2.479406994
 H       -2.696163832    -0.112546064    -1.603739789
 H        0.901154602    -0.135108260    -2.957818802
 H       -0.614376251     0.786777083    -2.977291706
 H       -0.531868639    -0.803607362    -3.723331290
 H       -0.477621074    -2.981468254     0.733117564
 H       -0.644630488    -2.881120184     2.479402379
 H        0.899049450    -2.488684995     1.736583448
 H       -0.624503488     0.831123013     2.892146295
 H        0.799305564    -0.211767704     3.048104100
 H       -0.751122335    -0.726046771     3.699872439

