187   

Si        0.000000000     0.000000000     0.000000000
 C        1.865324849     0.000000000     0.000000000
 C       -0.682270615     1.709049559     0.000000000
 C        0.150864149     2.821879353     0.149799118
 C       -0.381233384     4.111418282     0.147770351
 C       -1.754397239     4.315937151    -0.005354682
 C       -2.588302097     3.199793608    -0.154840259
 C       -2.060812257     1.912523971    -0.151072093
 C       -2.359188463     5.642093541    -0.014268538
 C       -1.692788055     6.801400063     0.119635935
 C       -2.329017779     8.114891007     0.106394873
 C       -3.709180698     8.265618899    -0.050106989
 C       -4.301084086     9.525641494    -0.060624217
 C       -3.517568157    10.673399880     0.100080201
 C       -2.133274841    10.529482846     0.257656799
 C       -1.545848862     9.265908288     0.254563307
Si       -4.304632138    12.335589814     0.085402790
 C       -3.299695441    13.587860445     0.955342407
 C       -2.486471519    13.312647964     1.983941149
 C       -1.680095356    14.312909693     2.683147144
 C       -0.866432373    13.899447207     3.747091496
 C       -0.083888256    14.807306486     4.441463402
 C       -0.123772881    16.181003177     4.122754286
 C       -0.941164748    16.595442933     3.054313947
 C       -1.685622941    15.666763899     2.338459410
 N        0.672703323    17.103810388     4.829730962
 C        1.076362875    16.731473416     6.197135796
 C        0.296215122    18.523350470     4.713322703
 C       -0.112311739    16.539168100     7.154726044
 C        0.305441405    15.834105874     8.456287316
 N        0.348691413    14.369728506     8.385307216
 C       -0.831631610    13.643779517     8.214313960
 C       -2.096375469    14.264710660     8.300223358
 C       -3.254262763    13.522876240     8.126769027
 C       -3.209369433    12.139025137     7.908859067
 C       -1.956346295    11.521954405     7.843239198
 C       -0.784734389    12.251019275     7.988624705
 C        1.591586525    13.797117912     7.854088829
 C       -4.466557937    11.410801233     7.732810478
 C       -4.557117132    10.091248890     7.518634345
Si       -6.117851668     9.167164190     7.296893557
 C       -6.129345937     8.075930119     5.814534483
 C       -5.917845038     8.600638248     4.534601135
 C       -5.927617249     7.769108516     3.414835768
 C       -6.180065693     6.400103656     3.544194428
 C       -6.396105557     5.876817802     4.824959753
 C       -6.360589638     6.700829827     5.946382501
 C       -6.203223131     5.481642932     2.410564502
 C       -6.012441362     5.843165435     1.131303245
 C       -6.034283681     4.930631071    -0.006083779
 C       -6.261815721     3.558396363     0.132697434
 C       -6.274408194     2.720769613    -0.982150071
 C       -6.059666940     3.238426009    -2.264626446
 C       -5.836985629     4.613390651    -2.406382304
 C       -5.829719861     5.447632529    -1.292028260
Si       -6.078817481     2.121663535    -3.728495438
 C       -7.433825327     0.849815233    -3.574439636
 C       -6.314728495     3.140771864    -5.318943190
 C       -4.386054192     1.257817550    -3.843815399
 C       -6.358039194     8.135497337     8.884885746
 C       -7.600577816    10.357930411     7.156635072
 C       -4.560257125    12.886416447    -1.715087731
 C       -5.998758570    12.222368435     0.948744718
 C       -0.657728211    -0.889350370    -1.548743666
 C       -0.614174181    -0.931971991     1.542038001
 H        1.232480364     2.724060028     0.272048484
 H        0.286774502     4.961878545     0.267655218
 H       -3.664862043     3.339728667    -0.276111851
 H       -2.760612474     1.080503636    -0.271803241
 H       -3.449630493     5.636808552    -0.137888351
 H       -0.608451183     6.813877722     0.249188727
 H       -4.332759091     7.382378926    -0.179359623
 H       -5.385237441     9.573963722    -0.194457663
 H       -1.470871935    11.393373670     0.375973389
 H       -0.468345331     9.176524546     0.374015150
 H       -3.415603869    14.613888045     0.576165000
 H       -2.366111750    12.298657809     2.394398630
 H       -0.845217912    12.846963850     4.036693516
 H        0.548933212    14.445990775     5.246471307
 H       -0.991665042    17.640141334     2.766768177
 H       -2.296808941    16.012287394     1.503662949
 H        0.942108850    19.143039313     5.356517927
 H       -0.754184170    18.720490518     4.982726737
 H        0.468513542    18.857822887     3.673778220
 H        2.417328173    14.524506802     7.904624050
 H        1.493929260    13.453354696     6.809100739
 H        1.886305281    12.932201043     8.479349394
 H       -2.179423675    15.329282998     8.490490675
 H       -4.218708935    14.030832918     8.169941563
 H       -1.891338403    10.446388649     7.669033423
 H        0.166435834    11.733187037     7.931086902
 H       -5.348425022    12.063530643     7.789000851
 H       -3.656261116     9.458680458     7.468595712
 H       -5.712325853     9.664715316     4.374214264
 H       -5.730963637     8.198189360     2.432475280
 H       -6.586959201     4.812984496     4.950624502
 H       -6.527648985     6.226630722     6.917509732
 H       -6.379744312     4.434487192     2.673160956
 H       -5.849630390     6.896123993     0.878123950
 H       -6.430637247     3.130458177     1.119139827
 H       -6.459141909     1.656652053    -0.810713068
 H       -5.658573386     5.076394622    -3.381367853
 H       -5.672671747     6.516339481    -1.433395031
 H        1.686809379    15.801984170     6.130944192
 H        1.766405432    17.512722557     6.586139591
 H       -0.572092002    17.516669926     7.385415160
 H       -0.911004530    15.953624398     6.649422408
 H        1.301813193    16.200447342     8.793251796
 H       -0.401213350    16.112016305     9.276392873
 H        2.263506675    -1.029538244    -0.036075516
 H        2.273522956     0.482732441     0.905322053
 H        2.262503816     0.539865265    -0.878541171
 H       -7.454081318     0.180266360    -4.452381671
 H       -8.423751021     1.336507675    -3.504350539
 H       -7.308240954     0.220332797    -2.676653016
 H       -5.470812892     3.890662233    -5.337161553
 C       -6.220188288     2.301489904    -6.606268574
 C       -7.644005739     3.917975290    -5.334097980
 H       -4.363531827     0.762148686    -4.856884800
 C       -3.206294789     2.242453914    -3.764735622
 C       -4.193898123     0.163903730    -2.778473415
 H       -7.251265916     7.473792891     8.695742852
 C       -5.147326794     7.237686769     9.199537470
 C       -6.662653181     8.997245567    10.123847043
 H       -7.552603031    11.010915286     8.075834209
 C       -7.540891709    11.272102332     5.919538945
 C       -8.955363732     9.626893582     7.160635162
 H       -5.066163978    13.893414572    -1.666454926
 C       -3.226742593    13.056862149    -2.465004280
 C       -5.466248165    11.935335387    -2.516954092
 H       -6.618733895    11.508649506     0.333670386
 C       -5.883511019    11.653090484     2.373981375
 C       -6.740936601    13.568840808     1.005681144
 H       -1.783682264    -0.835865403    -1.474393582
 C       -0.235722116    -0.188986449    -2.853034255
 C       -0.260915207    -2.373821833    -1.626504384
 H       -0.100254215    -1.935950691     1.514260003
 C       -0.215724293    -0.227366631     2.851916419
 C       -2.134028540    -1.176691536     1.558241633
 H       -5.256430972     1.788820106    -6.721474629
 H       -6.326440551     2.952238171    -7.486616899
 H       -7.012933096     1.546207763    -6.686188654
 H       -7.785181892     4.565787199    -4.457979127
 H       -8.521202981     3.260291754    -5.400359801
 H       -7.685346138     4.576663677    -6.213432857
 H       -3.249041403     3.045475571    -4.510583534
 H       -2.259492379     1.710952566    -3.940639057
 H       -3.109351793     2.715278300    -2.774224463
 H       -4.937082527    -0.640251451    -2.842108065
 H       -4.210308014     0.558651530    -1.752944839
 H       -3.211021707    -0.314564793    -2.911782377
 H       -4.843096560     6.591643446     8.365273771
 H       -5.384418651     6.566813193    10.037310922
 H       -4.263332915     7.814473803     9.507308565
 H       -7.581779957     9.588990314    10.027129561
 H       -5.845641912     9.688093885    10.376702387
 H       -6.804001901     8.353524624    11.003729676
 H       -6.592871729    11.818250745     5.817678255
 H       -8.331136607    12.033807974     5.977963825
 H       -7.712742112    10.724172993     4.982155572
 H       -9.124737623     9.024628374     8.062280948
 H       -9.087847651     8.966904509     6.291413085
 H       -9.777106835    10.356019841     7.119926858
 H       -2.540626629    13.765029296    -1.980212234
 H       -3.409117298    13.446793609    -3.476284913
 H       -2.685790087    12.108360202    -2.594434271
 H       -6.475311789    11.837643202    -2.096842699
 H       -5.044012294    10.925059499    -2.617295705
 H       -5.596449332    12.314830513    -3.540805075
 H       -5.408287949    10.661602271     2.405474823
 H       -6.883563883    11.535806512     2.815085375
 H       -5.320470800    12.310542549     3.053276539
 H       -6.922587534    14.010079614     0.017875197
 H       -6.217953362    14.318841879     1.615851325
 H       -7.729950604    13.433280980     1.466782359
 H       -0.516033570     0.874329750    -2.884104830
 H       -0.727456440    -0.664062904    -3.713660795
 H        0.844254600    -0.250872106    -3.041473005
 H       -0.600011558    -2.959987338    -0.762635262
 H        0.822262480    -2.523169038    -1.726279865
 H       -0.717450124    -2.839058282    -2.512087314
 H        0.867412575    -0.087066973     2.960537444
 H       -0.535864464    -0.827282920     3.715566872
 H       -0.691106492     0.757695107     2.967935395
 H       -2.497581468    -1.726574095     0.681239302
 H       -2.713554709    -0.246025359     1.640655371
 H       -2.405786663    -1.783482991     2.434070221

