187   

Si        0.000000000     0.000000000     0.000000000
 C        1.865831145     0.000000000     0.000000000
 C       -0.668309345     1.713674111     0.000000000
 C        0.142729844     2.794358591    -0.358088353
 C       -0.367279290     4.091592529    -0.356895472
 C       -1.689973712     4.341683387     0.017404627
 C       -2.501596795     3.257617681     0.375414830
 C       -2.000784158     1.958507503     0.358594718
 C       -2.255759963     5.686773815     0.029934240
 C       -1.568651983     6.789750907    -0.311461764
 C       -2.100482547     8.146592982    -0.310707052
 C       -3.414033849     8.449161390     0.054544518
 C       -3.871373450     9.767682221     0.037108474
 C       -3.038986223    10.802137437    -0.395124335
 C       -1.725213655    10.497872196    -0.782158219
 C       -1.262360760     9.187420514    -0.735153413
Si       -3.564746981    12.563071363    -0.448289194
 C       -3.081934119    13.304202516    -2.048265366
 C       -2.996613076    12.591442996    -3.179447851
 C       -2.612869718    13.157979087    -4.473767514
 C       -2.558320445    12.310806848    -5.590640429
 C       -2.199871388    12.803515431    -6.836333674
 C       -1.878636141    14.162370210    -6.983622155
 C       -1.920193561    15.011690562    -5.872184359
 C       -2.279434980    14.505124324    -4.627931285
 N       -1.517727288    14.596337623    -8.303492725
 C       -2.724650421    14.796075438    -9.142189225
 C       -0.610171607    15.757980183    -8.336789256
 C       -3.715958387    15.839226940    -8.588087392
 C       -5.182950386    15.524695646    -8.939534761
 N       -6.083620124    15.383630413    -7.785928884
 C       -6.213342801    14.137396866    -7.146451471
 C       -5.468087302    13.005561967    -7.522103207
 C       -5.637272857    11.800815884    -6.855396989
 C       -6.593008250    11.659635932    -5.840535525
 C       -7.349941444    12.779950299    -5.482760199
 C       -7.163945459    14.001908938    -6.112622134
 C       -6.118328926    16.561538620    -6.901954566
 C       -6.722957415    10.362951510    -5.175144052
 C       -7.591636547    10.086874004    -4.191723833
Si       -7.702116703     8.438661723    -3.400692440
 C       -6.075163718     7.581862613    -3.412780931
 C       -4.886863646     8.320696234    -3.380721437
 C       -3.652183848     7.674268738    -3.389781736
 C       -3.579122906     6.279325543    -3.427742306
 C       -4.769504512     5.541516805    -3.449575493
 C       -6.004562214     6.183868236    -3.433810970
 C       -2.313508311     5.556024399    -3.438703402
 C       -1.100876574     6.134391666    -3.420388568
 C        0.157618214     5.397793524    -3.431681616
 C        0.207791608     4.001569767    -3.463112780
 C        1.430276122     3.331342529    -3.473056064
 C        2.631222153     4.046046217    -3.436266474
 C        2.584098874     5.446241369    -3.397567032
 C        1.361955344     6.112786066    -3.395829158
Si        4.252228951     3.176854199    -3.448789180
 C        4.034175583     1.338988630    -3.691612523
 C        5.308840809     3.914674635    -4.846760065
 C        5.135746636     3.459097679    -1.785315636
 C       -8.356404881     8.558918257    -1.620075077
 C       -8.949641222     7.419456463    -4.421772604
 C       -5.461160417    12.731730658    -0.334770045
 C       -2.746322596    13.503640269     0.983623226
 C       -0.607396399    -0.889014931    -1.570757488
 C       -0.666058613    -0.921526481     1.524009856
 H        1.188509508     2.667244880    -0.656247765
 H        0.283656533     4.913735914    -0.655791410
 H       -3.536329227     3.429894778     0.664124526
 H       -2.682125325     1.151852622     0.639972493
 H       -3.302866597     5.748632380     0.335897498
 H       -0.521892669     6.711994595    -0.626415305
 H       -4.090481262     7.654733978     0.364093385
 H       -4.899997425     9.948632688     0.359432196
 H       -1.031203534    11.266651501    -1.137660611
 H       -0.238184442     8.969324581    -1.030985980
 H       -2.884786620    14.385019245    -2.027200383
 H       -3.202894715    11.511741834    -3.223415340
 H       -2.806565744    11.254023619    -5.481331797
 H       -2.151162753    12.145240700    -7.702234347
 H       -1.669040922    16.063529371    -5.970088145
 H       -2.305980251    15.176990024    -3.770031393
 H       -0.213289503    15.856173431    -9.362385644
 H        0.249653658    15.568162028    -7.671128662
 H       -1.072753344    16.713568771    -8.050210080
 H       -5.771826472    17.461813294    -7.433073754
 H       -5.502977981    16.435533155    -5.995251934
 H       -7.164017582    16.746040386    -6.593797271
 H       -4.718819958    13.073803333    -8.304898881
 H       -5.019017747    10.947682979    -7.138958105
 H       -8.097230559    12.699269189    -4.692997677
 H       -7.765693131    14.854460789    -5.813294180
 H       -6.014000205     9.614930688    -5.563025011
 H       -8.303189699    10.838493693    -3.824353036
 H       -4.882783621     9.415873251    -3.337401769
 H       -2.739999187     8.269019463    -3.352197625
 H       -4.731121234     4.454166690    -3.471175963
 H       -6.899281858     5.556605945    -3.444553894
 H       -2.409918114     4.465647706    -3.454859181
 H       -1.001324668     7.223239938    -3.395339563
 H       -0.714138643     3.421453383    -3.476688936
 H        1.404002058     2.238060631    -3.504059418
 H        3.491197146     6.055772247    -3.371514718
 H        1.344419504     7.200456072    -3.370282820
 H       -2.391464821    15.079703010   -10.163180481
 H       -3.213789982    13.799553436    -9.242394485
 H       -3.615003946    15.898103686    -7.484487802
 H       -3.445077305    16.843987865    -8.955143806
 H       -5.602922280    16.348434847    -9.566424656
 H       -5.264062666    14.612519399    -9.571656641
 H        2.263948171    -1.028198274     0.059022729
 H        2.259839085     0.559448466     0.868136044
 H        2.272692231     0.464451818    -0.916027764
 H        5.010820766     0.824100940    -3.719219516
 H        3.520481693     1.123794457    -4.646037032
 H        3.441201112     0.884661288    -2.878120631
 H        5.418623310     5.011911535    -4.604366325
 C        6.719997441     3.307218353    -4.935869263
 C        4.626856604     3.804296309    -6.222491321
 H        6.049448199     2.798027976    -1.814112439
 C        5.606439975     4.908112466    -1.566388878
 C        4.276190341     3.036955650    -0.579624089
 H       -9.245826838     9.251151072    -1.659946518
 C       -8.832309242     7.203670536    -1.062773640
 C       -7.328543807     9.150001280    -0.641119594
 H       -9.041946567     6.423557794    -3.901303308
 C      -10.347629652     8.060009321    -4.477964771
 C       -8.458073975     7.163838576    -5.857430622
 H       -5.806759820    11.946173003     0.396172630
 C       -5.934253778    14.099861335     0.188715808
 C       -6.138604275    12.470134198    -1.692494872
 H       -3.147238318    14.557208697     0.933644525
 C       -3.103906523    12.918657657     2.361639518
 C       -1.213945429    13.573784057     0.855403511
 H       -0.155279182    -1.921400229    -1.534387888
 C       -2.137985403    -1.040142778    -1.631442993
 C       -0.128688914    -0.201834654    -2.863387224
 H       -1.790112062    -0.922451877     1.419636055
 C       -0.201633474    -2.386511339     1.608826655
 C       -0.316954921    -0.207417764     2.842547638
 H        7.298053930     3.412135128    -4.008593870
 H        7.299566489     3.818138183    -5.718694122
 H        6.711843688     2.243031657    -5.206268766
 H        3.630381657     4.268295428    -6.250925269
 H        4.519053352     2.767253226    -6.566576166
 H        5.227603019     4.322154855    -6.983837063
 H        6.274516420     5.275617525    -2.355257842
 H        6.175469858     4.979599628    -0.627861333
 H        4.772213105     5.617236237    -1.471939894
 H        3.960557200     1.985822756    -0.614598676
 H        3.374162920     3.655457022    -0.462294754
 H        4.850081987     3.153085107     0.350919913
 H       -9.656654444     6.761203731    -1.635860505
 H       -9.209573217     7.330884451    -0.037794901
 H       -8.026587277     6.458619637    -1.001640697
 H       -6.990136241    10.156039202    -0.925679586
 H       -6.436717827     8.514737649    -0.531032573
 H       -7.769352016     9.244267724     0.360888589
 H      -10.795015396     8.220521039    -3.488991562
 H      -11.039594538     7.403915241    -5.025237034
 H      -10.353520929     9.022451566    -5.009124613
 H       -7.490889227     6.643634333    -5.899670271
 H       -8.362823802     8.087095144    -6.447433441
 H       -9.174419855     6.526911516    -6.394589299
 H       -5.572544022    14.329891269     1.198646210
 H       -7.032316988    14.118799301     0.246082352
 H       -5.648442232    14.932766514    -0.467394681
 H       -5.840004533    11.521424217    -2.163334927
 H       -5.937043929    13.263046748    -2.428638035
 H       -7.229941463    12.431908963    -1.573161288
 H       -4.183061636    12.894235063     2.560882029
 H       -2.657239888    13.530626667     3.158347855
 H       -2.717450014    11.899070241     2.505618032
 H       -0.874028537    14.015893061    -0.090671054
 H       -0.732484237    12.590638380     0.957258433
 H       -0.798009641    14.201661343     1.656327243
 H       -2.554979652    -1.599376256    -0.784555813
 H       -2.425813469    -1.596498885    -2.535005988
 H       -2.659887901    -0.073890087    -1.686460447
 H        0.964669773    -0.139364173    -2.942459358
 H       -0.535657451     0.813346044    -2.980728750
 H       -0.467064226    -0.771895992    -3.740222948
 H       -0.477846966    -2.981908199     0.729168935
 H       -0.671194924    -2.879462674     2.472558263
 H        0.882555474    -2.484333756     1.752345745
 H       -0.668237786     0.834056704     2.877669811
 H        0.760443782    -0.200074368     3.054497096
 H       -0.795315001    -0.721371095     3.688275142

