187   

Si        0.000000000     0.000000000     0.000000000
 C        1.865462855     0.000000000     0.000000000
 C       -0.679132064     1.710978352     0.000000000
 C        0.145514765     2.817260484     0.226915365
 C       -0.382555080     4.108306293     0.224110704
 C       -1.745339107     4.322450901     0.002493377
 C       -2.571004626     3.212504221    -0.221758422
 C       -2.046303285     1.923182973    -0.224030074
 C       -2.341706422     5.654166407    -0.009359281
 C       -1.663894094     6.797876305     0.186836460
 C       -2.259971022     8.129730111     0.175043672
 C       -3.623588353     8.342649356    -0.046802432
 C       -4.151853903     9.632933629    -0.049693399
 C       -3.321862729    10.740112184     0.155224137
 C       -1.954692217    10.531220246     0.375934159
 C       -1.433040274     9.240125752     0.390519173
Si       -4.003243114    12.448586034     0.154321328
 C       -2.687532904    13.634533018    -0.294543916
 C       -2.373576468    14.751377380     0.374824040
 C       -1.308740179    15.673667680    -0.023396940
 C       -1.070278179    16.814156715     0.757110743
 C       -0.074867451    17.717590793     0.423288611
 C        0.693533333    17.534621597    -0.747599545
 C        0.453634113    16.390640267    -1.532575900
 C       -0.516770924    15.470643159    -1.156476745
 N        1.699403547    18.458047443    -1.074039160
 C        1.493973957    19.863077732    -0.680592115
 C        2.375384472    18.286919204    -2.368190540
 C        0.195668526    20.506817592    -1.196614566
 C        0.272200162    20.988621983    -2.655498000
 N        0.935040394    22.289444029    -2.854797148
 C        0.437360520    23.391131014    -2.140772702
 C       -0.941220992    23.470229449    -1.844217267
 C       -1.446321664    24.551065064    -1.140630884
 C       -0.619427674    25.613218071    -0.747351769
 C        0.738768220    25.547825608    -1.068790613
 C        1.265799568    24.463973067    -1.759254832
 C        2.392152754    22.203702312    -3.029354444
 C       -1.205327909    26.730946980    -0.005428738
 C       -0.511553819    27.795152173     0.418963539
Si       -1.188288792    29.216504052     1.347031179
 C       -0.664204559    30.786833481     0.545420726
 C       -0.309972281    30.800562602    -0.809345378
 C        0.087552797    31.986680355    -1.421256674
 C        0.129337851    33.186980753    -0.699831674
 C       -0.232012139    33.170571370     0.650483538
 C       -0.626169469    31.984292502     1.267810756
 C        0.552720314    34.403318923    -1.385828978
 C        0.640956748    35.615039692    -0.811495288
 C        1.064441821    36.830909185    -1.498230358
 C        1.425689064    36.847735418    -2.847846077
 C        1.824680251    38.033385938    -3.464839316
 C        1.877855614    39.228872548    -2.741280603
 C        1.516909826    39.214568344    -1.387072137
 C        1.113239521    38.030864556    -0.775774573
Si        2.402322293    40.801817155    -3.541100605
 C        3.190431870    40.496293903    -5.204019395
 C        0.885197003    41.926386012    -3.780293860
 C        3.630787032    41.680600116    -2.382446369
 C       -3.087797205    29.159943321     1.414119396
 C       -0.513212924    29.151193067     3.125292026
 C       -5.399063251    12.582928969    -1.132409915
 C       -4.723422038    12.825726140     1.873289953
 C       -0.659395066    -0.897828811    -1.543475293
 C       -0.606014273    -0.928373074     1.547392296
 H        1.218863667     2.712870503     0.407967694
 H        0.281616409     4.952719777     0.399393700
 H       -3.635314153     3.357226726    -0.397199199
 H       -2.738623715     1.096735409    -0.407914089
 H       -3.419603849     5.670789349    -0.194875966
 H       -0.585881645     6.780932871     0.372744538
 H       -4.287467588     7.497318174    -0.217068350
 H       -5.226478971     9.736909751    -0.222106554
 H       -1.260763113    11.361806727     0.543277415
 H       -0.369015618     9.095387049     0.568235421
 H       -2.146512030    13.352574077    -1.213439368
 H       -2.896570998    15.064046908     1.288071365
 H       -1.669271783    16.989958993     1.651520093
 H        0.109001779    18.569991218     1.071206886
 H        1.024885756    16.205389172    -2.435955911
 H       -0.668996373    14.583185114    -1.773505945
 H        3.139342263    19.070004346    -2.504523136
 H        1.690461677    18.309805559    -3.231747606
 H        2.910634573    17.318161949    -2.368146510
 H        2.654607438    21.295919871    -3.597132253
 H        2.952236633    22.198499165    -2.079717844
 H        2.732088390    23.065744718    -3.634622786
 H       -1.615906910    22.681102989    -2.163790556
 H       -2.510530236    24.580111836    -0.903379254
 H        1.405590201    26.361292590    -0.776796256
 H        2.326328132    24.456717184    -1.987132164
 H       -2.282950067    26.615309516     0.169705348
 H        0.572241022    27.877616341     0.231602492
 H       -0.328666258    29.893626107    -1.422812055
 H        0.365314480    31.978305863    -2.473605802
 H       -0.208400648    34.089481245     1.233103837
 H       -0.896349717    32.032745031     2.326152627
 H        0.805593418    34.268269518    -2.441654053
 H        0.387753417    35.750566020     0.243992645
 H        1.397043726    35.929961423    -3.432354846
 H        2.094159523    37.983875614    -4.523476835
 H        1.539800709    40.118334849    -0.771532395
 H        0.835045888    38.039972866     0.276348333
 H        1.509998278    19.900977319     0.435954069
 H        2.376976171    20.456605381    -1.003706387
 H       -0.643374273    19.787661390    -1.096504736
 H       -0.074691378    21.356498194    -0.536216085
 H        0.779319062    20.228971546    -3.289543827
 H       -0.760452057    21.074775477    -3.073349105
 H        2.263322301    -1.029946854    -0.035372131
 H        2.274439817     0.483453993     0.904529649
 H        2.261942303     0.538713113    -0.879754018
 H        3.544095350    41.440007041    -5.656399503
 H        2.482814153    40.032579736    -5.913356487
 H        4.063752460    39.825401213    -5.111092996
 H        1.265990769    42.840482982    -4.321251572
 C       -0.201185107    41.272767362    -4.653900306
 C        0.243867686    42.387369581    -2.459261348
 H        3.067901734    41.871988019    -1.422805961
 C        4.851487285    40.805309933    -2.045418450
 C        4.119309762    43.037208939    -2.920542878
 H       -3.353682375    28.141839238     1.821782918
 C       -3.696420836    30.220432247     2.349083134
 C       -3.728872595    29.303079885     0.021629364
 H       -0.978401216    30.024500915     3.667600206
 C       -0.907162102    27.863842687     3.870604403
 C        1.015895920    29.316729706     3.181876611
 H       -6.197043576    11.856030599    -0.803798093
 C       -6.029108586    13.985645770    -1.191512577
 C       -4.940644366    12.178652108    -2.544938736
 H       -5.036146534    13.909672074     1.848152154
 C       -5.964260421    11.980077747     2.211394879
 C       -3.685180734    12.650640047     2.996692099
 H       -1.784208874    -0.891462805    -1.447149491
 C       -0.295515276    -0.168826150    -2.849642598
 C       -0.203157042    -2.364230326    -1.643439172
 H       -0.099518213    -1.936246626     1.514127764
 C       -0.190995682    -0.228285289     2.854549711
 C       -2.127069639    -1.161616053     1.575321095
 H        0.153563735    40.991359581    -5.653723702
 H       -1.032634467    41.975084896    -4.809747306
 H       -0.639005882    40.376238094    -4.191684396
 H        0.933796835    42.939646590    -1.808776521
 H       -0.177570847    41.555825343    -1.876950227
 H       -0.593465167    43.069637098    -2.666711800
 H        4.581239526    39.836374087    -1.601575025
 H        5.488233456    41.313894352    -1.307523666
 H        5.488717753    40.603493952    -2.916589461
 H        3.304345115    43.745530075    -3.118046225
 H        4.712461696    42.944889315    -3.839994173
 H        4.773711460    43.520712435    -2.180547098
 H       -3.369429284    30.121253608     3.391886669
 H       -4.792002790    30.125476360     2.361790978
 H       -3.483806029    31.249266583     2.025647333
 H       -3.378707227    28.555645949    -0.703350496
 H       -3.561465173    30.294595121    -0.423708359
 H       -4.818417024    29.178010294     0.092712245
 H       -1.992644311    27.722364176     3.950863883
 H       -0.523790576    27.892548828     4.900540380
 H       -0.486801474    26.957673721     3.411367784
 H        1.372561003    30.238560307     2.700925474
 H        1.554477979    28.474703225     2.725980650
 H        1.351126848    29.367094009     4.227569865
 H       -6.461955533    14.309012581    -0.236101334
 H       -6.850984525    13.998945254    -1.921460199
 H       -5.318931110    14.760474271    -1.514183669
 H       -4.513150691    11.167077165    -2.591659923
 H       -4.201124863    12.871422595    -2.969443715
 H       -5.796845928    12.181765199    -3.234299306
 H       -6.797696306    12.131067187     1.513695487
 H       -6.345160223    12.253027109     3.206323877
 H       -5.750441504    10.902586882     2.252305617
 H       -2.777157000    13.252493461     2.854720510
 H       -3.368828038    11.605074531     3.123933601
 H       -4.114582438    12.961235527     3.959482724
 H       -0.642480198     0.874168823    -2.875184999
 H       -0.768598399    -0.670307036    -3.705890353
 H        0.783615045    -0.163460871    -3.052347568
 H       -0.491873034    -2.969800357    -0.774658212
 H        0.881862737    -2.467026505    -1.777184992
 H       -0.666689224    -2.842426447    -2.518606740
 H        0.894135709    -0.096674497     2.954077066
 H       -0.508182699    -0.827621298     3.719981259
 H       -0.658260931     0.759546215     2.976785452
 H       -2.498992469    -1.721388881     0.707972653
 H       -2.700404118    -0.226578364     1.645715984
 H       -2.399335022    -1.753856200     2.461217264

