187   

Si        0.000000000     0.000000000     0.000000000
 C        1.865353837     0.000000000     0.000000000
 C       -0.680787349     1.710200287     0.000000000
 C        0.141065142     2.817259719     0.233096046
 C       -0.388882436     4.107550751     0.230083822
 C       -1.750443080     4.320292778    -0.000055263
 C       -2.573181783     3.209605017    -0.231483490
 C       -2.046779018     1.921010482    -0.232420054
 C       -2.349122265     5.650873929    -0.012566460
 C       -1.675426331     6.795830680     0.190931792
 C       -2.276320652     8.125629952     0.177965316
 C       -1.455363664     9.238206898     0.405682755
 C       -1.984298702    10.526430129     0.402704782
 C       -3.352306861    10.729694582     0.185875706
 C       -4.175167745     9.621070307    -0.039762890
 C       -3.639817429     8.333752175    -0.048337174
Si       -4.067945044    12.420506821     0.178362115
 C       -5.836657071    12.356460282     0.634037301
 C       -6.842626865    12.931265970    -0.036100525
 C       -8.248205394    12.850458088     0.371495880
 C       -9.214229302    13.496529254    -0.415084775
 C      -10.556371962    13.448751837    -0.070557915
 C      -10.958758464    12.733779481     1.068243835
 C      -10.006014016    12.072713419     1.849328842
 C       -8.661900525    12.127288893     1.492884366
 N      -12.370065669    12.742021003     1.344094242
 C      -12.741063302    13.870827701     2.226688152
 C      -12.892076482    11.443292776     1.805299328
 C      -12.396720750    13.678766773     3.717111639
 C      -12.198323097    15.022117937     4.444991640
 N      -10.792541946    15.456219331     4.574165124
 C      -10.152102357    15.824063794     3.364647733
 C      -10.764450078    16.810231305     2.565134900
 C      -10.177837878    17.204244322     1.373816235
 C       -8.953931617    16.660842163     0.956076679
 C       -8.334599159    15.708475025     1.768497134
 C       -8.911661432    15.302433146     2.966387465
 C      -10.014150173    14.596665905     5.482266291
 C       -8.380235131    17.113972093    -0.311674365
 C       -7.220797687    16.671978018    -0.817632312
Si       -6.523564433    17.253265996    -2.404688772
 C       -7.007867660    18.989577640    -2.768711947
 C       -7.186443457    19.895859554    -1.716767375
 C       -7.553376733    21.215916529    -1.972342299
 C       -7.737758988    21.664740338    -3.283306724
 C       -7.549824177    20.758854020    -4.335151699
 C       -7.186817578    19.438038973    -4.082415649
 C       -8.121546924    23.036687866    -3.598831364
 C       -8.332402443    24.001021515    -2.686888164
 C       -8.716199918    25.373021864    -3.002324149
 C       -8.904199025    25.820869498    -4.312405716
 C       -9.271278230    27.141880185    -4.568876460
 C       -9.465723014    28.043138698    -3.517434738
 C       -9.278681817    27.596041470    -2.202367408
 C       -8.906239155    26.278758492    -1.949926722
Si       -9.950250038    29.789540637    -3.839873267
 C      -10.513360684    30.030956938    -5.601816493
 C      -11.347792861    30.254237256    -2.633619071
 C       -8.462768798    30.930785922    -3.510633853
 C       -4.631500938    17.106188187    -2.306314257
 C       -7.162941382    16.125177099    -3.800040636
 C       -3.192996679    13.554942667     1.428372862
 C       -3.843456368    13.152722044    -1.563190881
 C       -0.658317986    -0.899603121    -1.542996617
 C       -0.606891955    -0.927860250     1.547498105
 H        1.213555776     2.713865956     0.419810724
 H        0.272963592     4.952449788     0.411606361
 H       -3.636609677     3.353145850    -0.413751736
 H       -2.737037784     1.094024662    -0.421886765
 H       -3.425931835     5.665905218    -0.205974894
 H       -0.598856124     6.781982067     0.384298867
 H       -0.391077849     9.097332280     0.584467905
 H       -1.295482078    11.356599373     0.580808896
 H       -5.251393859     9.722656475    -0.215388222
 H       -4.298762701     7.486650871    -0.230494630
 H       -6.022972191    11.786226409     1.560122468
 H       -6.692188860    13.508635676    -0.958718326
 H       -8.908641184    14.061228621    -1.297694490
 H      -11.307424534    13.958897663    -0.672926839
 H      -10.308649140    11.508558015     2.726129599
 H       -7.930229873    11.602167683     2.107030902
 H      -13.992240670    11.507208139     1.859883001
 H      -12.514183680    11.107567222     2.781593108
 H      -12.641478292    10.674895185     1.052606829
 H      -10.559395892    14.491579053     6.435665493
 H       -9.053583789    15.092611890     5.712195575
 H       -9.806535589    13.589370405     5.087845440
 H      -11.697053437    17.265361171     2.888318744
 H      -10.673095599    17.955902676     0.758086132
 H       -7.383157115    15.264934947     1.464765234
 H       -8.406071467    14.548867457     3.562352985
 H       -8.999601482    17.868714933    -0.817692281
 H       -6.621607868    15.909426709    -0.295539853
 H       -7.050402348    19.603282768    -0.669597752
 H       -7.692841712    21.899214296    -1.136382308
 H       -7.687180539    21.087686593    -5.363449917
 H       -7.053798048    18.779006582    -4.944444507
 H       -8.232865507    23.246419729    -4.666703047
 H       -8.220575016    23.791315822    -1.618948566
 H       -8.763743131    25.138271390    -5.148504240
 H       -9.401916231    27.433913688    -5.614526729
 H       -9.417137860    28.255450345    -1.340803454
 H       -8.763583268    25.950554032    -0.922037856
 H      -12.239331355    14.785942396     1.830744920
 H      -13.834734748    14.033037223     2.103508961
 H      -13.194194750    13.097566392     4.212506198
 H      -11.479574631    13.066249938     3.812192902
 H      -12.772306314    15.830235954     3.939595208
 H      -12.617950987    14.958917659     5.475601794
 H        2.262719748    -1.030312151    -0.031620649
 H        2.274701334     0.486649911     0.902607117
 H        2.261880862     0.535340152    -0.881811579
 H      -10.842524499    31.071060903    -5.775432400
 H      -11.366368379    29.369378243    -5.838666421
 H       -9.706744215    29.812846229    -6.323387507
 H      -10.915233610    30.133185080    -1.597949225
 C      -11.824368156    31.710491977    -2.777743172
 C      -12.562038629    29.315119024    -2.749211736
 H       -8.811752915    31.970163046    -3.777212141
 C       -8.008193338    30.943813510    -2.040162336
 C       -7.251379650    30.591202133    -4.398276945
 H       -4.412849417    16.022132650    -2.072203419
 C       -3.925008352    17.456646396    -3.626743678
 C       -4.037180283    17.963978030    -1.175059703
 H       -6.720504597    16.537782243    -4.752465117
 C       -6.720165103    14.658406496    -3.674691888
 C       -8.696734856    16.173188637    -3.922774191
 H       -2.113081660    13.602138875     1.105802330
 C       -3.754803448    14.988237999     1.430165038
 C       -3.236304967    12.996742448     2.861830132
 H       -4.467944443    14.093581794    -1.586991454
 C       -2.389932148    13.540006306    -1.884762720
 C       -4.359013658    12.204167839    -2.660415692
 H       -1.783167633    -0.894466945    -1.447038628
 C       -0.294516992    -0.171415981    -2.849621310
 C       -0.200506743    -2.365637792    -1.641407824
 H       -0.100901884    -1.936005057     1.514391053
 C       -0.191774304    -0.227968369     2.854741377
 C       -2.128091954    -1.160009430     1.574848043
 H      -11.022641936    32.446577212    -2.635066591
 H      -12.585079139    31.933426054    -2.015382875
 H      -12.295542136    31.912877832    -3.748701147
 H      -12.307094971    28.255958089    -2.600653021
 H      -13.078891798    29.398344854    -3.714421751
 H      -13.305367333    29.562776639    -1.978056313
 H       -8.794394306    31.261356215    -1.343621498
 H       -7.178813367    31.654405173    -1.910143787
 H       -7.630204133    29.968680276    -1.701845175
 H       -7.469755775    30.640437645    -5.472768405
 H       -6.834392473    29.595530947    -4.188755922
 H       -6.438513126    31.309123358    -4.217197830
 H       -4.227533666    16.817495238    -4.465981670
 H       -2.838324053    17.327475203    -3.518873997
 H       -4.078287614    18.501787370    -3.931068118
 H       -4.459235205    17.737185236    -0.186010254
 H       -4.162180993    19.042706841    -1.347090016
 H       -2.954511341    17.790852515    -1.098533668
 H       -5.629602363    14.534724448    -3.638138904
 H       -7.062744707    14.086294263    -4.549033318
 H       -7.147244161    14.155612069    -2.795399316
 H       -9.089108212    17.184794851    -4.096048234
 H       -9.211000379    15.768601339    -3.038672823
 H       -9.027228739    15.567255198    -4.777872608
 H       -3.685790344    15.485246592     0.452376059
 H       -3.186080946    15.614004210     2.132546374
 H       -4.803719899    15.037121513     1.756944388
 H       -2.818769058    11.984165489     2.949666874
 H       -4.251332671    12.975118706     3.282457312
 H       -2.638903437    13.631382543     3.531857394
 H       -1.980056897    14.298064049    -1.205000934
 H       -2.330122416    13.971684806    -2.894718228
 H       -1.705744610    12.680184154    -1.881103921
 H       -5.420274998    11.941941624    -2.548686149
 H       -3.792634388    11.262938121    -2.713138745
 H       -4.256099032    12.673907374    -3.648892406
 H       -0.641067915     0.871685304    -2.875871569
 H       -0.768000197    -0.673291447    -3.705461433
 H        0.784572368    -0.166666250    -3.052599302
 H       -0.489121791    -2.970756971    -0.772279183
 H        0.884674027    -2.467546156    -1.774522644
 H       -0.663124410    -2.845060160    -2.516420559
 H        0.893272020    -0.095393886     2.953819766
 H       -0.507957880    -0.828016839     3.720050755
 H       -0.660001570     0.759301573     2.977577580
 H       -2.499230666    -1.723307893     0.709409533
 H       -2.701138438    -0.224466503     1.640653327
 H       -2.401688315    -1.748390610     2.462919308

