187   

Si        0.000000000     0.000000000     0.000000000
 C        1.865205061     0.000000000     0.000000000
 C       -0.685348744     1.708300994     0.000000000
 C        0.126427032     2.815946267     0.263708642
 C       -0.408044330     4.104393747     0.260021665
 C       -1.764644066     4.314196527     0.000154697
 C       -2.577667349     3.202945225    -0.260701820
 C       -2.046584762     1.916358343    -0.261319934
 C       -2.368788627     5.642140684    -0.014527828
 C       -1.706915827     6.789010273     0.214509666
 C       -2.317201153     8.114450668     0.198368162
 C       -1.512028756     9.231954880     0.454266159
 C       -2.051774036    10.516003559     0.449142117
 C       -3.410378454    10.713213834     0.175800586
 C       -4.216754586     9.598190933    -0.080567943
 C       -3.675710013     8.313865693    -0.063836864
Si       -4.153320500    12.395253194     0.161417726
 C       -5.514203744    12.528619792    -1.054192113
 C       -5.576854164    11.820780671    -2.189715592
 C       -6.664433696    11.924946531    -3.164851251
 C       -6.612222369    11.126276861    -4.318093205
 C       -7.614763596    11.186258067    -5.271476151
 C       -8.691749976    12.081540682    -5.111190449
 C       -8.750448964    12.877936073    -3.958463529
 C       -7.755242964    12.779451609    -2.991331471
 N       -9.683436849    12.090998259    -6.125352403
 C       -9.205974337    12.493055853    -7.463720601
 C      -10.976270322    12.687486259    -5.756502549
 C       -9.166617239    14.004112880    -7.751557525
 C       -8.111973859    14.783083996    -6.943372253
 N       -6.722934838    14.639133183    -7.407640222
 C       -6.459948327    14.858415620    -8.765585645
 C       -7.174881611    15.859838265    -9.460597833
 C       -6.929081381    16.091615483   -10.803458135
 C       -5.939108938    15.378393332   -11.495074212
 C       -5.212897825    14.408681477   -10.798121347
 C       -5.456906335    14.150059082    -9.455982156
 C       -5.953971398    13.591810608    -6.723885551
 C       -5.721480025    15.663865540   -12.913921006
 C       -4.806623428    15.046564202   -13.672801656
Si       -4.494181152    15.363864883   -15.444715787
 C       -4.479595887    13.774192221   -16.370960038
 C       -5.060269731    12.626296571   -15.818135380
 C       -5.048980719    11.423212558   -16.519646581
 C       -4.468359304    11.340150231   -17.791840827
 C       -3.894939491    12.489762806   -18.343306214
 C       -3.900394277    13.694665954   -17.642157319
 C       -4.481376959    10.057245012   -18.487015136
 C       -3.956784570     9.841473870   -19.705233149
 C       -3.969864291     8.558580616   -20.400270965
 C       -4.542520907     7.408741971   -19.850528424
 C       -4.532694005     6.202289717   -20.550412077
 C       -3.943202371     6.118647016   -21.815695074
 C       -3.367672486     7.270454165   -22.369331464
 C       -3.383844061     8.474341856   -21.670557873
Si       -3.921730328     4.534247345   -22.752535257
 C       -4.390008420     3.089462721   -21.669441787
 C       -5.152894410     4.636713927   -24.200623243
 C       -2.173106490     4.284701020   -23.462298482
 C       -5.824532894    16.504235179   -16.184086171
 C       -2.797694460    16.208308690   -15.620870612
 C       -4.851201906    12.772418330     1.889767485
 C       -2.833389746    13.696838150    -0.266049979
 C       -0.655085789    -0.903141785    -1.542622524
 C       -0.608746241    -0.926836576     1.547383855
 H        1.194489667     2.714205809     0.474954167
 H        0.246023592     4.950070724     0.464457026
 H       -3.637185493     3.344438175    -0.465876595
 H       -2.729426208     1.088790350    -0.473851745
 H       -3.441106215     5.653352844    -0.232278603
 H       -0.635243527     6.780108757     0.432750972
 H       -0.452109374     9.098426405     0.661988479
 H       -1.375759324    11.348642387     0.661620854
 H       -5.286450669     9.692409931    -0.297028863
 H       -4.324822107     7.462684021    -0.261779890
 H       -6.292933768    13.261072675    -0.792686304
 H       -4.807414800    11.089708842    -2.476983051
 H       -5.778575867    10.436748778    -4.459477315
 H       -7.586331484    10.532578711    -6.141249612
 H       -9.572669625    13.570305287    -3.805459229
 H       -7.827438653    13.395883765    -2.094422545
 H      -11.703091841    12.490376113    -6.563909907
 H      -10.944417686    13.772676293    -5.573141369
 H      -11.356698842    12.187411711    -4.847615839
 H       -6.216699299    13.568738858    -5.649641327
 H       -4.876803240    13.834426060    -6.782417303
 H       -6.117916043    12.581995600    -7.133768234
 H       -7.920734846    16.454634073    -8.942156605
 H       -7.506605767    16.855196372   -11.325433693
 H       -4.436767486    13.839059685   -11.312344229
 H       -4.873825741    13.384462914    -8.954626069
 H       -6.391272840    16.440842591   -13.305262531
 H       -4.142291328    14.276457125   -13.246269851
 H       -5.533327397    12.634259028   -14.830677085
 H       -5.500269532    10.539524093   -16.072600315
 H       -3.437587754    12.452060575   -19.330095503
 H       -3.435312500    14.559482750   -18.123306409
 H       -4.963648872     9.243849967   -17.936896710
 H       -3.474635608    10.654714794   -20.255516103
 H       -5.004686690     7.446235665   -18.865743914
 H       -4.996969345     5.337229352   -20.068906621
 H       -2.892243622     7.264840043   -23.354259788
 H       -2.933338157     9.358396434   -22.117777933
 H       -8.197753254    12.054622597    -7.636843099
 H       -9.885682053    12.000346099    -8.200347374
 H       -8.982246393    14.146781046    -8.837709081
 H      -10.161768547    14.450619527    -7.568391163
 H       -8.357847341    15.872230517    -6.969884452
 H       -8.162665478    14.492756435    -5.868824959
 H        2.262901240    -1.030003116    -0.036219240
 H        2.274642467     0.482758550     0.904682416
 H        2.261777422     0.539483085    -0.879293013
 H       -4.330597815     2.137867415   -22.227239225
 H       -5.420035667     3.184593050   -21.283382952
 H       -3.710298292     3.008013118   -20.801778680
 H       -5.131288348     3.620556639   -24.690733529
 C       -6.593858791     4.909768370   -23.731641257
 C       -4.773083717     5.685032601   -25.261649964
 H       -1.984237015     5.169868116   -24.137023816
 C       -1.088255561     4.285653764   -22.370051034
 C       -2.030509353     3.007901109   -24.309626853
 H       -5.860802101    17.411944796   -15.514393378
 C       -5.501014467    16.979735759   -17.611725746
 C       -7.219616088    15.852386728   -16.185768307
 H       -2.664021992    16.411158750   -16.722662586
 C       -2.714571732    17.551588581   -14.875001815
 C       -1.639684584    15.305005504   -15.160559400
 H       -5.279970400    13.814395349     1.833829368
 C       -5.985656561    11.808856067     2.281998434
 C       -3.777014339    12.755382638     2.991060720
 H       -2.044065880    13.617973606     0.536254662
 C       -2.165465863    13.424783582    -1.625852013
 C       -3.376905958    15.136724120    -0.257050127
 H       -1.779646814    -0.907432764    -1.444064823
 C       -0.300237993    -0.170560802    -2.849230990
 C       -0.185559118    -2.365251116    -1.643875097
 H       -0.105817295    -1.936457348     1.514255462
 C       -0.192168578    -0.228497504     2.854891579
 C       -2.130718434    -1.154329060     1.573677733
 H       -6.975567927     4.155149154   -23.031997324
 H       -7.277771026     4.903888752   -24.592447183
 H       -6.708445395     5.893917255   -23.254726006
 H       -3.787304942     5.512543742   -25.711714700
 H       -4.791890076     6.712570411   -24.871799637
 H       -5.496249579     5.659633659   -26.089873144
 H       -1.093883736     5.196087759   -21.753581104
 H       -0.090828455     4.232263624   -22.829162927
 H       -1.162283271     3.426049541   -21.690851711
 H       -2.727860495     2.967801477   -25.156339397
 H       -2.161933831     2.088279303   -23.724179497
 H       -1.020349316     2.955017457   -24.741245508
 H       -4.562718090    17.544629532   -17.680735702
 H       -6.291539112    17.654787951   -17.970601055
 H       -5.452733055    16.155294893   -18.336896881
 H       -7.549700505    15.516964086   -15.193100826
 H       -7.283655961    14.987171027   -16.861425351
 H       -7.972753288    16.572208867   -16.535340565
 H       -3.459845280    18.283497256   -15.211828030
 H       -1.731485139    18.014630840   -15.041081240
 H       -2.823423867    17.443478886   -13.786084066
 H       -1.607648562    14.338187196   -15.682409693
 H       -1.659954209    15.099664279   -14.081404923
 H       -0.676554857    15.794636014   -15.363077400
 H       -6.822538526    11.806190371     1.570539497
 H       -6.408553689    12.100045102     3.254053959
 H       -5.643458607    10.769917146     2.395879902
 H       -2.975002103    13.486955937     2.829651986
 H       -3.309361474    11.768294440     3.117974684
 H       -4.229448702    13.005787883     3.961681193
 H       -1.700722661    12.431365548    -1.693907337
 H       -1.361640593    14.153056191    -1.804085445
 H       -2.862353709    13.521709109    -2.471140552
 H       -3.806466085    15.435377170     0.707610956
 H       -4.136395707    15.311727145    -1.031934839
 H       -2.562044232    15.846481038    -0.461691490
 H       -0.656084277     0.869429062    -2.873785096
 H       -0.770728103    -0.675885020    -3.704691361
 H        0.778398692    -0.155902504    -3.054236153
 H       -0.466734024    -2.973617243    -0.774571505
 H        0.900066929    -2.458018380    -1.780193007
 H       -0.646644273    -2.847590382    -2.518090411
 H        0.893236131    -0.099460116     2.954607584
 H       -0.510731204    -0.827715996     3.719942705
 H       -0.657442606     0.760174345     2.977746453
 H       -2.502096641    -1.720450828     0.710178282
 H       -2.701242349    -0.216852070     1.634315384
 H       -2.407387592    -1.737949999     2.463923402

