187   

Si        0.000000000     0.000000000     0.000000000
 C        1.864765750     0.000000000     0.000000000
 C       -0.657793578     1.720561603     0.000000000
 C       -0.001370525     2.721563856     0.725247493
 C       -0.488466592     4.028437110     0.733998985
 C       -1.646530723     4.364528270     0.027322862
 C       -2.305318580     3.360103627    -0.694185688
 C       -1.818835502     2.055244034    -0.708288650
 C       -2.194087206     5.716525411     0.006420087
 C       -1.662535986     6.770969735     0.648114290
 C       -2.216793946     8.121187706     0.622144427
 C       -1.563751724     9.134446291     1.336419090
 C       -2.057686718    10.436913402     1.339319471
 C       -3.233254996    10.750544997     0.647174613
 C       -3.892325038     9.738802984    -0.060440634
 C       -3.385556523     8.440204103    -0.075133199
Si       -3.912333889    12.458755372     0.630471982
 C       -5.730274912    12.437853437     0.423690719
 C       -6.388660105    13.172848575    -0.482135032
 C       -7.840652900    13.172244797    -0.665297190
 C       -8.386003959    13.998724332    -1.659183598
 C       -9.751892177    14.041898654    -1.880432144
 C      -10.633093943    13.326870042    -1.043414031
 C      -10.090292243    12.518501705    -0.030971228
 C       -8.712011605    12.430855103     0.135521890
 N      -12.020131011    13.403209291    -1.310946476
 C      -12.563036817    14.763663900    -1.498885515
 C      -12.896030018    12.558949532    -0.481411214
 C      -12.643850088    15.581579816    -0.196838210
 C      -12.517009798    17.096852353    -0.444177575
 N      -11.149500562    17.645553179    -0.311697792
 C      -10.491729005    17.261181747     0.888244105
 C      -11.120168852    17.598228226     2.103344672
 C      -10.531899431    17.252790105     3.307975313
 C       -9.287983051    16.604200765     3.344787941
 C       -8.658953567    16.290896398     2.137840478
 C       -9.248996266    16.612928240     0.919793846
 C      -10.349686693    17.543331388    -1.542031187
 C       -8.722969830    16.267499987     4.652661465
 C       -7.548966020    15.650536392     4.835460273
Si       -6.835652673    15.226186134     6.464376919
 C       -6.333534427    13.458536347     6.432189639
 C       -6.859790120    12.600540247     5.460653080
 C       -6.485737598    11.257832213     5.427070201
 C       -5.586701094    10.745021592     6.365938897
 C       -5.066868426    11.605764904     7.342105695
 C       -5.437288327    12.947215329     7.378432621
 C       -5.167473135     9.348365345     6.368947896
 C       -5.589363474     8.422568529     5.491472043
 C       -5.167788835     7.026115764     5.497506619
 C       -4.267968669     6.516779342     6.437334411
 C       -3.890523445     5.174667301     6.408290638
 C       -4.422522899     4.308125467     5.448642307
 C       -5.325405501     4.816543036     4.504919033
 C       -5.685032407     6.161053879     4.524265131
Si       -3.933624915     2.534823973     5.398366275
 C       -3.075337611     1.997530565     6.964327048
 C       -5.476113448     1.466407258     5.085293859
 C       -2.749534170     2.312690943     3.926980339
 C       -5.336365870    16.334762189     6.832674679
 C       -8.114934690    15.473186406     7.851901038
 C       -3.521329405    13.348342870     2.265825279
 C       -3.074045826    13.421901705    -0.781009443
 C       -0.651594445    -0.937991161    -1.522758314
 C       -0.634037804    -0.896175477     1.556596925
 H        0.909935449     2.519929931     1.295764047
 H        0.044410315     4.790251069     1.300825532
 H       -3.207799603     3.599642323    -1.253477726
 H       -2.376448122     1.316557325    -1.290397868
 H       -3.104682522     5.830176184    -0.589121823
 H       -0.754084599     6.659695494     1.247168475
 H       -0.658221913     8.905029390     1.894816164
 H       -1.502191338    11.188139738     1.907464152
 H       -4.816315071     9.927032109    -0.616567957
 H       -3.914875122     7.671233673    -0.634434071
 H       -6.260310491    11.767900457     1.118560521
 H       -5.876265618    13.851117966    -1.178923761
 H       -7.724598958    14.590341753    -2.292781564
 H      -10.146458583    14.617950788    -2.713979218
 H      -10.736185053    11.957602196     0.637457121
 H       -8.313355846    11.785576011     0.920281000
 H      -13.930328800    12.626840229    -0.859847336
 H      -12.898419090    12.829995749     0.586535898
 H      -12.585461427    11.503438512    -0.583039472
 H      -10.913993248    17.987711398    -2.378701600
 H      -10.064168749    16.514999984    -1.813882844
 H       -9.428116333    18.141522108    -1.419450230
 H      -12.067677636    18.130940796     2.090890725
 H      -11.039056882    17.503370853     4.239498061
 H       -7.696565685    15.775772206     2.138517769
 H       -8.747094207    16.326785104    -0.001573095
 H       -9.367559182    16.574725175     5.487503241
 H       -6.915539490    15.360808459     3.980427135
 H       -7.570525266    12.946585170     4.701711825
 H       -6.903769090    10.608440831     4.659487809
 H       -4.366386605    11.223659918     8.081786853
 H       -5.000759624    13.572819337     8.161401927
 H       -4.460451838     9.084169996     7.160260984
 H       -6.292957306     8.685968741     4.696101001
 H       -3.848615615     7.168339905     7.201426164
 H       -3.177620301     4.835337992     7.164351040
 H       -5.768401235     4.186546008     3.728241909
 H       -6.377088821     6.541182898     3.775205713
 H      -11.943477970    15.293547805    -2.255466890
 H      -13.572994595    14.663452893    -1.956515944
 H      -13.593511562    15.366809636     0.324830600
 H      -11.852013288    15.247338086     0.506164025
 H      -12.914204218    17.368131839    -1.445601319
 H      -13.154219001    17.645421523     0.289734539
 H        2.263565163    -1.029549673    -0.028022168
 H        2.277753758     0.493539660     0.896859513
 H        2.257643903     0.533227570    -0.885213621
 H       -2.816793333     0.924330378     6.928393054
 H       -3.724261621     2.153019602     7.844864130
 H       -2.140078093     2.559516245     7.132050876
 H       -5.928313914     1.849083859     4.124002663
 C       -5.155939914    -0.027025312     4.890392455
 C       -6.533938463     1.614681848     6.193505078
 H       -2.429442210     1.230666424     3.939932348
 C       -3.418143043     2.598752514     2.572576453
 C       -1.490788428     3.189915345     4.053618572
 H       -4.979382056    16.034830885     7.860767700
 C       -4.172791846    16.123081490     5.849047751
 C       -5.692326645    17.831698545     6.869442926
 H       -8.481071716    16.535757483     7.751510127
 C       -9.324882785    14.531703578     7.708832831
 C       -7.525938226    15.305727400     9.263997606
 H       -2.400869864    13.476254165     2.291023131
 C       -4.166173382    14.743727470     2.343328247
 C       -3.935053875    12.533975855     3.500716059
 H       -3.572686169    14.433298813    -0.811083474
 C       -1.567727678    13.642476894    -0.553747660
 C       -3.271117515    12.746534167    -2.150582430
 H       -1.777755752    -0.895417043    -1.456720834
 C       -0.228486756    -0.280514363    -2.849119932
 C       -0.241723848    -2.421721082    -1.551322609
 H       -0.244146582    -1.952098621     1.479642564
 C       -0.094195992    -0.284531789     2.861685547
 C       -2.169874553    -0.957699449     1.637831248
 H       -4.461264609    -0.216627028     4.061107134
 H       -6.076020854    -0.580073106     4.653235695
 H       -4.739121385    -0.496961623     5.790656335
 H       -6.852306259     2.654764110     6.352689412
 H       -6.199411218     1.219430588     7.161651771
 H       -7.440948940     1.053796939     5.927428220
 H       -4.286348853     1.963095791     2.364829649
 H       -2.699268014     2.415958791     1.756160041
 H       -3.727774621     3.648041103     2.460216999
 H       -0.894739520     2.972603077     4.947881605
 H       -1.719302991     4.266007924     4.053105580
 H       -0.830629214     3.022782312     3.188283744
 H       -3.850653425    15.074750335     5.773339521
 H       -3.291579354    16.691301408     6.179043386
 H       -4.407434682    16.478710636     4.835579263
 H       -6.454820177    18.080466811     7.618668593
 H       -6.043196155    18.212192896     5.899273145
 H       -4.803331698    18.424183812     7.128649301
 H       -9.831234119    14.609169697     6.736970305
 H      -10.080341716    14.768440742     8.470917039
 H       -9.060024926    13.474454145     7.855567810
 H       -6.719012716    16.015086330     9.487192916
 H       -7.145605685    14.291767905     9.451829396
 H       -8.305873907    15.482779567    10.018997290
 H       -3.864995749    15.412051634     1.527105097
 H       -3.863481179    15.241969113     3.276110227
 H       -5.265247176    14.704784116     2.356776908
 H       -3.484676316    11.532722777     3.543054486
 H       -5.024461086    12.406473245     3.587611362
 H       -3.619418823    13.047818703     4.420541427
 H       -1.344315111    14.225273863     0.348931979
 H       -1.139205535    14.206117946    -1.395135962
 H       -1.000668963    12.702472765    -0.496315465
 H       -4.324604105    12.581708775    -2.413768373
 H       -2.759654268    11.775514949    -2.222458156
 H       -2.848688419    13.375661429    -2.946512142
 H       -0.515409801     0.777780757    -2.924575432
 H       -0.711332644    -0.791127355    -3.694436158
 H        0.853247668    -0.341227534    -3.029744449
 H       -0.587974374    -2.985217163    -0.675329579
 H        0.843568120    -2.565992502    -1.634636309
 H       -0.684859676    -2.916311382    -2.427987136
 H        1.000832681    -0.297709288     2.928309652
 H       -0.461104609    -0.857226671     3.725716733
 H       -0.427285110     0.752873314     3.018219217
 H       -2.633295199    -1.454386956     0.776449247
 H       -2.631640301     0.036357873     1.739307228
 H       -2.476916080    -1.530943721     2.524509014

