187   

Si        0.000000000     0.000000000     0.000000000
 C        1.865935833     0.000000000     0.000000000
 C       -0.679495797     1.710655187     0.000000000
 C        0.162435571     2.825883052     0.050589218
 C       -0.367997099     4.116027904     0.049881734
 C       -1.749463118     4.320719929     0.008516817
 C       -2.592002127     3.201876256    -0.042410113
 C       -2.065455829     1.913435338    -0.051655560
 C       -2.349146023     5.650912146     0.006108878
 C       -1.657333549     6.802433241     0.042530832
 C       -2.257506549     8.132524691     0.040106046
 C       -1.414984502     9.251435042     0.080911900
 C       -1.941986576    10.540369877     0.080298349
 C       -3.327853209    10.738836959     0.061247743
 C       -4.171919667     9.623687673     0.025442582
 C       -3.640196443     8.334945146     0.009008298
Si       -4.038947279    12.432518685     0.060171222
 C       -5.688639886    12.422421855     0.849721579
 C       -6.810229869    12.953063442     0.347289326
 C       -8.108934788    12.915047885     1.026987659
 C       -9.217301359    13.506727735     0.400369926
 C      -10.465318465    13.495825522     1.003986914
 C      -10.626750281    12.894234740     2.262321037
 C       -9.531266991    12.296100777     2.892403174
 C       -8.286667101    12.300235402     2.268912612
 N      -11.955444152    12.931880102     2.808103431
 C      -12.179259604    14.152844366     3.615306967
 C      -12.349232663    11.692155576     3.500773537
 C      -11.541534090    14.133670605     5.018370802
 C      -11.428876140    15.548208638     5.620163096
 N      -10.090423217    16.172426885     5.529619398
 C       -9.685933239    16.419056474     4.179669109
 C      -10.272666435    17.522126615     3.536580320
 C       -9.929580368    17.823822457     2.226836022
 C       -9.013026202    17.029890493     1.522994430
 C       -8.420613081    15.948211221     2.179738392
 C       -8.726844534    15.656621171     3.503750097
 C       -9.081644751    15.483129838     6.354854058
 C       -8.676239714    17.381509733     0.140401961
 C       -7.813581678    16.684412506    -0.609665128
Si       -7.332702236    17.044252509    -2.335331415
 C       -5.495132684    17.026803898    -2.402757028
 C       -4.760574845    17.519947254    -1.316868845
 C       -3.368569807    17.515219847    -1.349053079
 C       -2.679057275    17.018742859    -2.462992541
 C       -3.415865182    16.530439014    -3.545723217
 C       -4.809782165    16.536884229    -3.518664285
 C       -1.220466684    17.035096596    -2.449370278
 C       -0.443042440    16.593080423    -3.452270654
 C        1.015676985    16.608334286    -3.441115414
 C        1.756126742    17.095479002    -2.361040021
 C        3.150560889    17.091077167    -2.392921245
 C        3.835033400    16.589366488    -3.504313934
 C        3.094287004    16.097629858    -4.587759875
 C        1.702755234    16.109447225    -4.555879879
Si        5.675105415    16.575781509    -3.563441074
 C        6.418903628    16.958913448    -1.896236733
 C        6.235324949    14.855253495    -4.154642917
 C        6.282342037    17.874828981    -4.815109901
 C       -8.093610251    15.741721010    -3.492176828
 C       -7.953216062    18.754537158    -2.886778849
 C       -2.946011799    13.619707487     1.070449304
 C       -4.106552258    13.070725614    -1.728167293
 C       -0.669277664    -0.888554870    -1.543846901
 C       -0.583217612    -0.940185787     1.550019217
 H        1.250909764     2.729280838     0.089634805
 H        0.309276719     4.967393778     0.085276013
 H       -3.671119527     3.339095940    -0.077988744
 H       -2.771674689     1.079728618    -0.101684407
 H       -3.442566123     5.659576187    -0.028872827
 H       -0.563972123     6.794046884     0.077324244
 H       -0.335630969     9.114954950     0.107364562
 H       -1.236329658    11.376011176     0.100114701
 H       -5.262298506     9.721427363     0.008489655
 H       -4.316091600     7.482552273    -0.024722603
 H       -5.687564917    11.926112727     1.835604132
 H       -6.842486286    13.455210771    -0.628869519
 H       -9.102594206    13.985644523    -0.573398660
 H      -11.326179498    13.953136971     0.517527409
 H       -9.647702669    11.818228769     3.860424697
 H       -7.443970193    11.820555116     2.767447627
 H      -13.425978046    11.750358374     3.735162359
 H      -11.800698248    11.482433473     4.430297685
 H      -12.205681422    10.840272650     2.812881413
 H       -9.384507454    15.565919641     7.413133779
 H       -8.111658238    16.000289029     6.250375248
 H       -8.937198269    14.418280380     6.117488545
 H      -10.986753216    18.138762028     4.078655775
 H      -10.384271959    18.685995013     1.740837254
 H       -7.684572656    15.327638697     1.661291203
 H       -8.246593499    14.810229121     3.988000315
 H       -9.203940313    18.270933318    -0.223615665
 H       -7.306090928    15.789791825    -0.202866109
 H       -5.247941665    17.915505183    -0.418785620
 H       -2.811844323    17.904508107    -0.498381543
 H       -2.904326655    16.142523827    -4.424435429
 H       -5.332025125    16.145920996    -4.395943916
 H       -0.775014331    17.445010762    -1.538228354
 H       -0.888476716    16.184636257    -4.364223130
 H        1.247438220    17.487047844    -1.481933552
 H        3.675457482    17.487941018    -1.519479526
 H        3.575431008    15.691863782    -5.482339666
 H        1.144887962    15.724244088    -5.407389410
 H      -11.790536012    15.021346023     3.032608686
 H      -13.279918166    14.292088150     3.695695973
 H      -12.132913189    13.487298441     5.690212206
 H      -10.538415015    13.668481014     4.960428265
 H      -12.155149721    16.238394228     5.134760950
 H      -11.705265274    15.524434364     6.698491083
 H        2.263793282    -1.030459509    -0.009277007
 H        2.272204985     0.505841631     0.893618370
 H        2.264877926     0.516236531    -0.891787295
 H        7.522007879    16.910320986    -1.931975257
 H        6.079883976    16.233325162    -1.134736135
 H        6.141961532    17.969103491    -1.547069162
 H        5.785830095    14.719905147    -5.181336754
 C        7.762406924    14.718247097    -4.286888708
 C        5.705564848    13.722670115    -3.256556974
 H        7.408892951    17.853407195    -4.752559281
 C        5.881151741    17.569071666    -6.269197306
 C        5.811253938    19.297748370    -4.462776993
 H       -7.797718582    16.054676087    -4.535747462
 C       -7.562108688    14.318052164    -3.258705775
 C       -9.631488996    15.712863175    -3.422904945
 H       -9.069379723    18.749515741    -2.720982658
 C       -7.350055886    19.899197535    -2.052267963
 C       -7.694635108    19.041721004    -4.376536974
 H       -1.967181420    13.691654486     0.513688088
 C       -3.545271790    15.032943936     1.168730063
 C       -2.651899362    13.099898007     2.488682494
 H       -4.681393702    14.043400509    -1.695971059
 C       -2.717042834    13.366999855    -2.318309490
 C       -4.846402138    12.099209900    -2.665535175
 H       -1.793874015    -0.869362687    -1.444950247
 C       -0.300239395    -0.161684923    -2.849759055
 C       -0.227976070    -2.359320619    -1.646446506
 H       -0.031484886    -1.924624551     1.527135108
 C       -0.206447537    -0.211562501     2.853323311
 C       -2.091408304    -1.244841387     1.575967604
 H        8.206916846    15.450458679    -4.973344821
 H        8.016441650    13.726677124    -4.689276445
 H        8.285087721    14.801302577    -3.324749937
 H        4.610498217    13.722559820    -3.158797306
 H        6.128186141    13.744661907    -2.243344340
 H        5.975207461    12.745890581    -3.683044352
 H        6.244324316    16.597497520    -6.627301437
 H        6.311692049    18.323893347    -6.943531370
 H        4.794126702    17.603358044    -6.427773371
 H        6.131330513    19.629703567    -3.466716883
 H        4.718941486    19.411683966    -4.516223340
 H        6.230885441    20.020949494    -5.176845433
 H       -6.464532913    14.252015798    -3.258389348
 H       -7.908441396    13.650236040    -4.060387000
 H       -7.923192878    13.877582351    -2.318442073
 H      -10.098130711    16.668418641    -3.693767295
 H      -10.013067141    15.426833255    -2.431965905
 H      -10.026298878    14.970157681    -4.130901786
 H       -7.523214404    19.795363741    -0.972429390
 H       -7.800483682    20.857871397    -2.345948067
 H       -6.266521081    20.010387035    -2.203279029
 H       -8.187223171    18.329572261    -5.050526916
 H       -6.625384476    19.060115014    -4.630736286
 H       -8.087672517    20.034235898    -4.641686206
 H       -3.734738324    15.493724457     0.187574585
 H       -2.848364899    15.702045574     1.691949489
 H       -4.486817032    15.061715389     1.735430016
 H       -2.192651216    12.101885162     2.502703506
 H       -3.546975375    13.061622980     3.124283404
 H       -1.942951924    13.770283749     2.994972901
 H       -2.177093464    14.159250937    -1.780339353
 H       -2.818935024    13.728984755    -3.352204860
 H       -2.066029846    12.484091409    -2.364324263
 H       -5.877690529    11.887990553    -2.352049564
 H       -4.330553080    11.133912202    -2.772208019
 H       -4.906821096    12.523306428    -3.677856137
 H       -0.636237241     0.884978259    -2.873168166
 H       -0.781202400    -0.656730990    -3.705429166
 H        0.778284782    -0.168016404    -3.055129763
 H       -0.520950128    -2.963125135    -0.777857825
 H        0.855741637    -2.472602358    -1.782199147
 H       -0.697851097    -2.831646101    -2.521417793
 H        0.871179993    -0.030248172     2.956890672
 H       -0.501017616    -0.817117754     3.722306187
 H       -0.717356322     0.755780506     2.964546426
 H       -2.440782463    -1.801503121     0.697364500
 H       -2.707080028    -0.339716126     1.670263287
 H       -2.331861599    -1.869067468     2.449108644

