187   

Si        0.000000000     0.000000000     0.000000000
 C        1.865258624     0.000000000     0.000000000
 C       -0.668407282     1.715646894     0.000000000
 C        0.089080679     2.770717674    -0.520045200
 C       -0.413281660     4.071367851    -0.521987502
 C       -1.685448036     4.347080487    -0.013354634
 C       -2.445801262     3.288286998     0.500245239
 C       -1.946344363     1.988371005     0.504685953
 C       -2.249876215     5.692745678     0.004147056
 C       -1.622813157     6.788566556    -0.456155499
 C       -2.180776163     8.136628605    -0.441884972
 C       -3.451998130     8.422101274     0.064674688
 C       -3.944702667     9.726369208     0.057899268
 C       -3.170247920    10.775157752    -0.449550444
 C       -1.896469673    10.493002241    -0.958350332
 C       -1.411302156     9.187692426    -0.957698261
Si       -3.809416086    12.500006579    -0.463835139
 C       -2.414666798    13.672256515    -0.606935161
 C       -2.323896614    14.681129960    -1.483229403
 C       -1.185688015    15.598158897    -1.563189275
 C       -1.201429844    16.618956898    -2.522864456
 C       -0.148462134    17.513054860    -2.639363824
 C        0.946669428    17.448843644    -1.751617495
 C        0.960821673    16.423581968    -0.784418692
 C       -0.078350846    15.506403149    -0.714292566
 N        2.019244744    18.349893685    -1.860444699
 C        1.781360503    19.622494670    -2.560576128
 C        2.882602373    18.501933544    -0.676247468
 C        0.808170070    20.552791820    -1.818173470
 C        0.470831416    21.775787622    -2.686475782
 N       -0.339356614    22.783797614    -1.982712526
 C        0.252882150    23.459233384    -0.901088262
 C        1.655820458    23.574879241    -0.802484028
 C        2.232923892    24.242149418     0.266594674
 C        1.445730161    24.862197400     1.246417961
 C        0.055416989    24.774606710     1.130737435
 C       -0.538696228    24.093794746     0.076974182
 C       -1.744347557    22.371704995    -1.818622011
 C        2.107991761    25.552916777     2.353732782
 C        1.460652264    26.179601163     3.345566630
Si        2.286605970    27.043079551     4.729817045
 C        3.921052831    27.731921420     4.241715114
 C        4.140227468    28.143708404     2.922113309
 C        5.373875774    28.667411430     2.538866746
 C        6.410817043    28.804723783     3.466160043
 C        6.186209857    28.400770749     4.788680163
 C        4.956194767    27.873068037     5.173892291
 C        7.717524161    29.347480577     3.109556533
 C        8.060177447    29.769494497     1.880558243
 C        9.366134498    30.312513943     1.521828271
 C       10.406384372    30.447297379     2.444915993
 C       11.639573203    30.971904759     2.058085495
 C       11.861790295    31.365188581     0.734634932
 C       10.820456417    31.229581309    -0.193418374
 C        9.588406755    30.712660705     0.197195854
Si       13.483814056    32.059241454     0.208911352
 C       14.807312987    31.752219526     1.487109236
 C       13.970314683    31.256581358    -1.447292835
 C       13.311658599    33.935784804    -0.058674645
 C        1.165827533    28.473210524     5.293400797
 C        2.496683393    25.824437795     6.175687134
 C       -5.031524668    12.698686994    -1.907020662
 C       -4.727668819    12.849369802     1.165999825
 C       -0.629227643    -0.904486912    -1.551826309
 C       -0.650164360    -0.922274860     1.533295119
 H        1.090383498     2.617857033    -0.932344862
 H        0.198702735     4.874993162    -0.927725569
 H       -3.439559573     3.480505559     0.900237532
 H       -2.586365739     1.203417058     0.916752906
 H       -3.254423995     5.763061298     0.430776698
 H       -0.617844499     6.715481453    -0.882914386
 H       -4.070159123     7.623168787     0.469408279
 H       -4.946479809     9.888767449     0.464716656
 H       -1.249927258    11.274913904    -1.370567689
 H       -0.420780915     8.985492026    -1.361060406
 H       -1.613860159    13.485239602     0.128123380
 H       -3.106199032    14.899048825    -2.221926996
 H       -2.050361016    16.708180259    -3.201538580
 H       -0.184723259    18.269270179    -3.417387562
 H        1.790830174    16.328849837    -0.091251486
 H       -0.031139377    14.711011485     0.031905192
 H        3.636143813    19.288193776    -0.850149893
 H        3.436526525    17.560446346    -0.508210503
 H        2.323404047    18.756149415     0.239536586
 H       -2.075217486    21.784714632    -2.691507981
 H       -2.383388907    23.272490057    -1.778888962
 H       -1.918496664    21.769318598    -0.911588352
 H        2.299606163    23.132909451    -1.556768721
 H        3.320551916    24.296333516     0.334870761
 H       -0.582095670    25.249854329     1.878035375
 H       -1.621879952    24.054842675     0.023055493
 H        3.205063356    25.513689755     2.292441832
 H        0.361123332    26.195032509     3.388914965
 H        3.363060776    28.067670636     2.153698898
 H        5.521634474    28.973801577     1.504822743
 H        6.979846830    28.500264446     5.526591535
 H        4.839788096    27.576022956     6.219602925
 H        8.434523224    29.394394930     3.934338831
 H        7.342439650    29.723081742     1.056151394
 H       10.260797782    30.143627420     3.479936477
 H       12.413961473    31.055578791     2.825657020
 H       10.936682866    31.519732916    -1.241515665
 H        8.790997003    30.617453926    -0.537370556
 H        2.764693524    20.126491937    -2.705787332
 H        1.409956485    19.397630593    -3.586690881
 H       -0.116623164    20.006748582    -1.549117612
 H        1.246524479    20.875219303    -0.853748108
 H        1.399976835    22.265626758    -3.058324671
 H       -0.084204656    21.461884112    -3.600193334
 H        2.263379844    -1.029523993     0.042391411
 H        2.259005732     0.545389986     0.877204558
 H        2.277096378     0.478573395    -0.905476378
 H       15.785921533    32.135360919     1.146718029
 H       14.924535830    30.670912934     1.683381209
 H       14.572722435    32.245737060     2.446467097
 H       13.156050498    31.536380719    -2.177425449
 C       15.305761954    31.773486592    -2.011277267
 C       14.021359282    29.720189354    -1.365596936
 H       14.344591906    34.301201544    -0.328672061
 C       12.359193134    34.309456015    -1.208574104
 C       12.861557028    34.675262675     1.214606380
 H        0.186607360    28.002061674     5.596273592
 C        1.723983219    29.238123145     6.506076082
 C        0.884297215    29.472907720     4.157287058
 H        2.940671656    26.419175534     7.025380720
 C        1.164884963    25.225097131     6.661367958
 C        3.465808407    24.677889476     5.835829386
 H       -5.312777917    13.791352117    -1.926937478
 C       -4.400717579    12.339440254    -3.264810133
 C       -6.322725547    11.879474952    -1.730870237
 H       -5.588870874    12.121215071     1.200515671
 C       -3.846497368    12.601333630     2.403312038
 C       -5.305061189    14.273890113     1.237613402
 H       -0.164126619    -1.931762487    -1.519744933
 C       -2.159092748    -1.072793244    -1.578012721
 C       -0.184865084    -0.219809259    -2.857265726
 H       -1.775346931    -0.921625768     1.442121120
 C       -0.186878862    -2.388189536     1.609339663
 C       -0.282808699    -0.212553468     2.849118265
 H       15.321379070    32.860136590    -2.165516206
 H       15.497428309    31.321116231    -2.995229657
 H       16.166449531    31.512474534    -1.381295832
 H       13.078256375    29.272527567    -1.020677079
 H       14.821339038    29.351298406    -0.710077923
 H       14.216501297    29.295852862    -2.360759418
 H       12.665971175    33.899294955    -2.179000288
 H       12.331629989    35.401913665    -1.333022437
 H       11.321704262    33.997804838    -1.022376671
 H       13.536708599    34.527321675     2.067222530
 H       11.849702366    34.391282653     1.537994032
 H       12.832527288    35.758855269     1.030610764
 H        1.864363956    28.607012018     7.392763752
 H        1.024907492    30.033293463     6.803307974
 H        2.681015977    29.736396107     6.294420784
 H        0.429392650    29.009899212     3.270932253
 H        1.786101906    30.007774362     3.825760638
 H        0.178924969    30.243559196     4.498977197
 H        0.443070915    25.980528182     6.996883586
 H        1.342021253    24.566415290     7.523854559
 H        0.672405673    24.605236685     5.898993562
 H        4.464676054    25.024804361     5.536648118
 H        3.090081720    24.024691963     5.034953265
 H        3.613439344    24.034635949     6.714575714
 H       -3.490875156    12.911430301    -3.492720030
 H       -5.109569538    12.548901766    -4.078008593
 H       -4.145551271    11.272784180    -3.346196870
 H       -6.890963478    12.149333495    -0.831737987
 H       -6.141758114    10.795631537    -1.702824690
 H       -6.996738288    12.053483194    -2.582251908
 H       -3.430516812    11.584710444     2.444886499
 H       -4.440254618    12.727123523     3.319845637
 H       -3.007948114    13.306998548     2.480321191
 H       -6.013614909    14.497696807     0.429918347
 H       -4.527845607    15.051518830     1.223387545
 H       -5.858108703    14.409264355     2.178019661
 H       -2.548877134    -1.645495463    -0.726970189
 H       -2.461251228    -1.622697546    -2.481167130
 H       -2.694162310    -0.112980555    -1.611093336
 H        0.904829542    -0.134174123    -2.955952888
 H       -0.611426670     0.786438708    -2.978134719
 H       -0.526327529    -0.803953013    -3.723900527
 H       -0.475717691    -2.981716823     0.732354031
 H       -0.645706946    -2.881862761     2.478386017
 H        0.898996469    -2.488270722     1.738149960
 H       -0.624847365     0.831438160     2.890515719
 H        0.796873949    -0.213932991     3.049891942
 H       -0.755819805    -0.724984904     3.698888470

