187   

Si        0.000000000     0.000000000     0.000000000
 C        1.859593811     0.000000000     0.000000000
 C       -0.623293856     1.731616869     0.000000000
 C        0.018312233     2.688434063     0.796663936
 C       -0.429863870     4.007717597     0.818235630
 C       -1.530767451     4.400066304     0.051048106
 C       -2.174776550     3.440715112    -0.740164314
 C       -1.729102293     2.121097491    -0.763919556
 C       -2.034255429     5.769432543     0.042819610
 C       -1.507177241     6.779607532     0.755092064
 C       -2.006227307     8.150173937     0.750757229
 C       -3.105363548     8.552676450    -0.012093555
 C       -3.547266398     9.875898466     0.015627631
 C       -2.896172660    10.824129287     0.808828008
 C       -1.791572865    10.423226553     1.574346379
 C       -1.352675291     9.103517233     1.543504340
Si       -3.435195711    12.583939064     0.884597529
 C       -3.267041910    13.164225445     2.614746440
 C       -3.404580962    12.316873921     3.643420705
 C       -3.290329047    12.674995500     5.056019991
 C       -3.465053189    11.653133350     6.004938128
 C       -3.371142410    11.918273643     7.357646574
 C       -3.057229790    13.220521316     7.805657581
 C       -2.891234854    14.244759206     6.861503711
 C       -3.035982080    13.971521827     5.503353535
 N       -2.978041044    13.418053978     9.201344530
 C       -2.051899490    12.518565033     9.915883778
 C       -2.968244098    14.807056334     9.676977557
 C       -0.653544333    13.070434181    10.237225908
 C        0.232371924    13.432456308     9.030262531
 N        0.510987606    12.397206437     8.020694057
 C        0.495300195    11.042542696     8.352799290
 C        1.065009516    10.614905352     9.572385875
 C        1.056010917     9.272757686     9.914116737
 C        0.567975487     8.300436129     9.028899952
 C        0.041232612     8.722006661     7.804521524
 C       -0.001953774    10.066357937     7.464662098
 C        0.116020361    12.760426060     6.652347261
 C        0.581743572     6.896529848     9.440889024
 C        0.142969667     5.882674370     8.682791993
Si        0.146296479     4.121153149     9.166912324
 C        0.907135483     3.079012039     7.854720286
 C        1.674007483     3.650897824     6.834600359
 C        2.246017274     2.851188691     5.845052566
 C        2.079838212     1.464056696     5.864659110
 C        1.315145163     0.892683468     6.890787377
 C        0.731765874     1.688986782     7.872045914
 C        2.656911289     0.584200302     4.854265857
 C        3.408919997     0.990420084     3.817131912
 C        3.980165906     0.098686919     2.813203702
 C        3.791864796    -1.286368113     2.841857870
 C        4.355374477    -2.103127367     1.862849111
 C        5.130717394    -1.553561580     0.834429773
 C        5.322526189    -0.167057919     0.805685739
 C        4.752644112     0.647778426     1.781518255
Si        5.860516011    -2.662568621    -0.443233376
 C        6.532629819    -4.212065568     0.349297639
 C        4.516038374    -3.144858749    -1.702657868
 C        7.246619440    -1.754214252    -1.378687599
 C        1.093891545     3.865871047    10.796323083
 C       -1.659673974     3.568891991     9.410430254
 C       -2.326716837    13.637255417    -0.243017179
 C       -5.240621131    12.767587295     0.322081900
 C       -0.644352533    -0.943025388    -1.521771528
 C       -0.622368564    -0.880932477     1.568002655
 H        0.882349006     2.439247182     1.421470339
 H        0.086176533     4.733032334     1.444715897
 H       -3.034452182     3.725430146    -1.343294221
 H       -2.272973593     1.416216633    -1.397957441
 H       -2.901406999     5.935687478    -0.602670011
 H       -0.640080245     6.610950882     1.400748702
 H       -3.629297863     7.832100374    -0.637092899
 H       -4.410962151    10.131642618    -0.603675234
 H       -1.243324563    11.124004590     2.214049193
 H       -0.493647424     8.810268067     2.144617851
 H       -3.066147319    14.232610914     2.759372667
 H       -3.616250558    11.244421739     3.498579752
 H       -3.688559560    10.637811878     5.671872525
 H       -3.546408791    11.125393633     8.083054549
 H       -2.658071347    15.255663013     7.177663639
 H       -2.927156228    14.783634765     4.784302973
 H       -3.073694515    14.810371687    10.776210874
 H       -3.848866425    15.334492471     9.266193214
 H       -2.063437113    15.374417244     9.409533499
 H        0.286342100    13.835220353     6.478155692
 H       -0.942227767    12.539672525     6.425246671
 H        0.753798912    12.212885458     5.933495561
 H        1.523414172    11.340585378    10.237286420
 H        1.467410063     8.966758846    10.876285397
 H       -0.351979277     7.986697913     7.100028033
 H       -0.444539674    10.354385123     6.515413604
 H        0.998264337     6.748326834    10.446180843
 H       -0.275642159     6.061941998     7.678975924
 H        1.846036597     4.730551581     6.775969490
 H        2.829481860     3.320327686     5.054968071
 H        1.171646258    -0.185520136     6.922688270
 H        0.139007119     1.188429053     8.642726012
 H        2.437135391    -0.478485696     4.997999690
 H        3.635121148     2.050620596     3.673024916
 H        3.196727906    -1.741036038     3.631752619
 H        4.168968378    -3.178420037     1.937155581
 H        5.914233661     0.320198478     0.025864629
 H        4.912804037     1.723655642     1.738995924
 H       -2.560273955    12.248125157    10.874014307
 H       -1.937305824    11.564419918     9.348284688
 H       -0.741855664    13.971700020    10.875913478
 H       -0.137438965    12.320202973    10.872623537
 H       -0.216485813    14.317630764     8.521409287
 H        1.229665640    13.761920131     9.419180283
 H        2.265581966    -1.028744565     0.012291077
 H        2.270189956     0.516160436     0.888525321
 H        2.258795328     0.512016369    -0.893698876
 H        7.009457596    -4.868718798    -0.399704148
 H        5.740997527    -4.795791742     0.849856896
 H        7.296084981    -3.965313443     1.109800311
 H        5.013605530    -3.871753024    -2.408623200
 C        3.318475597    -3.861864395    -1.052941228
 C        3.995464459    -1.958280491    -2.531980034
 H        6.778864670    -0.813383410    -1.791884467
 C        8.411916361    -1.342538804    -0.460236110
 C        7.811502290    -2.555390993    -2.565960149
 H        0.651452468     4.602259542    11.528399590
 C        0.933867141     2.454997120    11.390144589
 C        2.595947839     4.173086503    10.653226779
 H       -1.613326298     2.494766154     9.752116271
 C       -2.397689774     4.381430694    10.488586430
 C       -2.468728165     3.616468674     8.102104490
 H       -2.697352546    14.698159282    -0.142096474
 C       -0.849664982    13.605135061     0.189939095
 C       -2.421546955    13.236131470    -1.725501586
 H       -5.279416000    12.374290944    -0.735055000
 C       -6.210779598    11.935227689     1.179751641
 C       -5.724190603    14.228954874     0.301697715
 H       -1.768409033    -0.848102423    -1.497673292
 C       -0.143234618    -0.339579723    -2.847283289
 C       -0.300039407    -2.443734480    -1.502402546
 H       -0.166541841    -1.912519633     1.540688987
 C       -0.156524692    -0.189298855     2.861215215
 C       -2.153587847    -1.032609966     1.611289613
 H        3.597112228    -4.784730160    -0.528271332
 H        2.594301117    -4.157650979    -1.826050657
 H        2.771020675    -3.224970992    -0.342669485
 H        4.779729055    -1.454163040    -3.110778121
 H        3.490136494    -1.196204735    -1.920346284
 H        3.250486122    -2.306197203    -3.262197031
 H        8.099189905    -0.734560377     0.400042157
 H        9.136314448    -0.733819698    -1.020113451
 H        8.970756027    -2.203154402    -0.068302779
 H        7.053310427    -2.810867631    -3.317602064
 H        8.305926984    -3.486651449    -2.259655684
 H        8.574338065    -1.961476384    -3.090359426
 H       -0.108546134     2.187866257    11.604919458
 H        1.470271104     2.388385479    12.347978540
 H        1.358534064     1.670210343    10.748753272
 H        2.804656939     5.181430019    10.269873725
 H        3.114964575     3.460157804     9.996346508
 H        3.090481460     4.105857780    11.632297478
 H       -1.923820753     4.324687948    11.476875347
 H       -3.420303859     3.998232812    10.614735189
 H       -2.497767879     5.445006398    10.228395164
 H       -2.024720936     3.018716619     7.293160634
 H       -2.609043318     4.637523494     7.721466488
 H       -3.475971436     3.208140960     8.266753793
 H       -0.691063320    13.932952189     1.226148685
 H       -0.257234745    14.281742869    -0.442239836
 H       -0.395424018    12.609433735     0.082302786
 H       -3.435862815    13.321288608    -2.136058900
 H       -2.069033673    12.212053744    -1.915427007
 H       -1.787319352    13.895523559    -2.335599187
 H       -5.966568090    10.864239932     1.204438529
 H       -7.230448091    12.009272614     0.776383090
 H       -6.265289475    12.283649036     2.221604360
 H       -5.134776213    14.873863230    -0.362411547
 H       -5.732351733    14.690913443     1.298740034
 H       -6.759587283    14.276505974    -0.065845536
 H       -0.375693941     0.728704574    -2.956862129
 H       -0.619804716    -0.847369951    -3.697290970
 H        0.940471841    -0.456847867    -2.984956789
 H       -0.695865339    -2.968569176    -0.623520671
 H        0.781624713    -2.633336227    -1.547720877
 H       -0.736779353    -2.941171945    -2.379750637
 H        0.936558555    -0.095886921     2.937127715
 H       -0.477731175    -0.769549562     3.737226089
 H       -0.582705236     0.816250634     2.988210890
 H       -2.560632848    -1.594553333     0.761606176
 H       -2.676531721    -0.066619507     1.654339663
 H       -2.451755279    -1.582244269     2.515429657

