187   

Si        0.000000000     0.000000000     0.000000000
 C        1.865461090     0.000000000     0.000000000
 C       -0.674123425     1.713026011     0.000000000
 C        0.141701118     2.809261790    -0.297088781
 C       -0.379602118     4.102905175    -0.294178322
 C       -1.726827140     4.330174793    -0.001586156
 C       -2.543922097     3.230127970     0.292085821
 C       -2.026121144     1.937904674     0.292743962
 C       -2.315016268     5.665480649     0.013071352
 C       -1.642869385     6.799720260    -0.247048918
 C       -2.229502127     8.135682804    -0.232813527
 C       -1.409181629     9.233928340    -0.524108164
 C       -1.923842383    10.527641533    -0.522749232
 C       -3.277188921    10.751539774    -0.240303400
 C       -4.098850798     9.657281346     0.049617820
 C       -3.577447958     8.363969023     0.057010884
Si       -3.966118018    12.457257028    -0.236197751
 C       -5.779088675    12.393773719    -0.452622311
 C       -6.684693327    13.020882945     0.309367819
 C       -8.130780877    12.940405476     0.097329442
 C       -8.984303457    13.641452685     0.960777521
 C      -10.360083525    13.597938824     0.802698219
 C      -10.934597071    12.883128767    -0.270721251
 C      -10.077053351    12.179338388    -1.139191577
 C       -8.703678878    12.194322089    -0.936479812
 N      -12.330134596    12.841557876    -0.427357332
 C      -13.103149933    14.000947190     0.051211997
 C      -12.842838510    12.294049773    -1.695310117
 C      -12.767824994    15.302652904    -0.698523216
 C      -13.839180982    16.390623896    -0.518305837
 N      -15.198733556    16.045846720    -0.994612186
 C      -15.247659337    15.241436366    -2.156136665
 C      -14.542769082    15.683434682    -3.295943943
 C      -14.558090053    14.933037325    -4.458987846
 C      -15.295002046    13.741056293    -4.541314913
 C      -16.011768647    13.321170396    -3.419225828
 C      -16.002086766    14.060803096    -2.241236555
 C      -16.125562329    15.688915284     0.091623325
 C      -15.276393458    12.985879776    -5.796055119
 C      -15.939704688    11.838774269    -5.988877227
Si      -15.952603660    10.855889366    -7.530012279
 C      -17.683408588    10.456728342    -8.004491526
 C      -18.748068984    11.211958099    -7.501883017
 C      -20.061000871    10.909669712    -7.861408835
 C      -20.337262065     9.856468365    -8.737458267
 C      -19.267871656     9.105943608    -9.244521957
 C      -17.955820779     9.401661196    -8.884266205
 C      -21.694341991     9.503994539    -9.141442789
 C      -22.804969718    10.139285867    -8.730556312
 C      -24.161689052     9.785966401    -9.135187472
 C      -24.437216129     8.729874134   -10.007498698
 C      -25.750058543     8.426573801   -10.368065273
 C      -26.817296904     9.178635873    -9.867210191
 C      -26.543484211    10.238845501    -8.992298735
 C      -25.232583985    10.535775608    -8.630086788
Si      -28.555483692     8.791013024   -10.333510244
 C      -28.631585827     7.617883367   -11.781891875
 C      -29.446745388     7.992731392    -8.853238061
 C      -29.436675720    10.422870381   -10.762320472
 C      -15.116527803    11.796586807    -8.955318210
 C      -14.993219349     9.242825161    -7.214439916
 C       -3.493603896    13.312161531     1.395540276
 C       -3.219821073    13.444348953    -1.682185196
 C       -0.615792416    -0.921569387    -1.547220663
 C       -0.656976825    -0.903216063     1.541484809
 H        1.202974357     2.694874758    -0.534330544
 H        0.277771606     4.939097159    -0.525433759
 H       -3.596240980     3.384830605     0.523172378
 H       -2.711608709     1.119734159     0.531010942
 H       -3.380664050     5.693626839     0.258776150
 H       -0.577207046     6.770934685    -0.492526862
 H       -0.357002167     9.076982176    -0.752945963
 H       -1.236258628    11.345827688    -0.753212663
 H       -5.163069117     9.775248318     0.279745297
 H       -4.235265142     7.528457348     0.289365736
 H       -6.091130966    11.775374055    -1.310940441
 H       -6.408335798    13.649550429     1.165834746
 H       -8.562266392    14.223281247     1.780759704
 H      -10.991796402    14.123394650     1.512283798
 H      -10.477121914    11.608262656    -1.971095593
 H       -8.064480004    11.624541682    -1.613285007
 H      -13.943268265    12.384081286    -1.736256923
 H      -12.604331316    11.216382854    -1.745766939
 H      -12.436283342    12.796781165    -2.588580646
 H      -16.127357071    16.499586082     0.841653558
 H      -15.889873949    14.742154111     0.601933222
 H      -17.153266790    15.629993130    -0.310848962
 H      -13.991565164    16.620225712    -3.256270965
 H      -13.998071926    15.282060825    -5.327352720
 H      -16.596614100    12.400612656    -3.458996212
 H      -16.571912716    13.702028463    -1.389865575
 H      -14.663538073    13.457356828    -6.575335536
 H      -16.542851538    11.387840163    -5.182819608
 H      -18.591752483    12.051848633    -6.816970313
 H      -20.873684808    11.507961290    -7.453293399
 H      -19.462004211     8.281793756    -9.928173584
 H      -17.162505380     8.780973209    -9.309683982
 H      -21.760966102     8.655558871    -9.828778153
 H      -22.738979498    10.988238610    -8.043630864
 H      -23.624429737     8.131332595   -10.414728676
 H      -25.902789179     7.588355708   -11.053496128
 H      -27.337340781    10.861491800    -8.570023413
 H      -25.039927660    11.362044431    -7.948291193
 H      -14.184012969    13.753203799    -0.058979726
 H      -12.932075245    14.119857097     1.144100998
 H      -11.787460462    15.690611905    -0.358541436
 H      -12.627565082    15.082963849    -1.776620598
 H      -13.892015335    16.695811097     0.549283373
 H      -13.529546416    17.302742648    -1.084767830
 H        2.263487619    -1.029154769     0.051887774
 H        2.261152453     0.553006001     0.871302374
 H        2.274881703     0.469103996    -0.911722790
 H      -29.676809550     7.426459125   -12.083954137
 H      -28.170607897     6.643226049   -11.544272013
 H      -28.104542593     8.036086117   -12.658695175
 H      -30.478163353     7.727198485    -9.225994815
 C      -28.761617524     6.697233586    -8.380900909
 C      -29.605072308     8.934652596    -7.646203540
 H      -29.389274391    11.055101912    -9.828241521
 C      -28.729095586    11.195880763   -11.889992904
 C      -30.919369409    10.240881219   -11.132716403
 H      -14.101315874    12.104969094    -8.570948286
 C      -14.907392865    10.937512753   -10.214973669
 C      -15.888667304    13.069418144    -9.348427057
 H      -14.990988514     8.684846649    -8.195137521
 C      -13.531161469     9.484558390    -6.799770506
 C      -15.672951144     8.349548999    -6.161535484
 H       -4.022175615    14.309122095     1.387870203
 C       -3.970948436    12.524076615     2.629172779
 C       -1.983306043    13.575722790     1.532237614
 H       -2.108277555    13.483115953    -1.492396544
 C       -3.445964715    12.759482596    -3.041826136
 C       -3.740703628    14.890494942    -1.755305586
 H       -0.125707800    -1.937361732    -1.512839786
 C       -2.140677057    -1.129136203    -1.574494937
 C       -0.189060251    -0.230197535    -2.855254985
 H       -1.781740774    -0.902452118     1.444604860
 C       -0.193989104    -2.367741047     1.639079460
 C       -0.296999261    -0.174903417     2.849139415
 H      -28.680516051     5.934623591    -9.166055230
 H      -29.342159890     6.239250695    -7.567229652
 H      -27.752639665     6.869881768    -7.979343803
 H      -30.158347770     9.853148432    -7.879290311
 H      -28.642391569     9.223377415    -7.201252660
 H      -30.170952820     8.430635746    -6.849086005
 H      -27.673791912    11.413347594   -11.671046658
 H      -29.217182473    12.168797248   -12.044138904
 H      -28.765780825    10.675427597   -12.856146891
 H      -31.508720728     9.756355123   -10.343586520
 H      -31.062377863     9.666430608   -12.057524810
 H      -31.385881532    11.221673644   -11.305784967
 H      -14.283570544    10.051654333   -10.040809503
 H      -14.393278019    11.525770944   -10.989227340
 H      -15.852043954    10.601524304   -10.665521740
 H      -16.047108225    13.764629467    -8.512745691
 H      -16.874673899    12.851549621    -9.784173028
 H      -15.331371523    13.627849481   -10.113713057
 H      -12.953463298    10.042488987    -7.548015888
 H      -13.014158406     8.523216295    -6.667626390
 H      -13.439597594    10.017659780    -5.842572604
 H      -16.715340390     8.101973153    -6.407660412
 H      -15.664805081     8.790932605    -5.155595042
 H      -15.141713255     7.390319390    -6.081781991
 H       -5.051778862    12.326938076     2.634176484
 H       -3.755609898    13.090524199     3.545940769
 H       -3.461277436    11.555755277     2.738783041
 H       -1.579020018    14.217096399     0.738941229
 H       -1.388211831    12.651835174     1.554925384
 H       -1.777036861    14.094343962     2.479843894
 H       -3.062838437    11.729917159    -3.080003135
 H       -2.920783061    13.311569311    -3.834051112
 H       -4.504226642    12.731026606    -3.335638341
 H       -3.533037692    15.474066590    -0.849221098
 H       -4.822035987    14.946534791    -1.946400874
 H       -3.254046725    15.424613737    -2.583746191
 H       -2.518959837    -1.696371137    -0.714716154
 H       -2.425282714    -1.702732262    -2.468656507
 H       -2.699148867    -0.183895047    -1.628015742
 H        0.898025710    -0.115934717    -2.954234630
 H       -0.641046215     0.764467516    -2.979388047
 H       -0.514952164    -0.825865517    -3.719943355
 H       -0.478278579    -2.972746018     0.768497217
 H       -0.657068916    -2.849952676     2.512323906
 H        0.891232911    -2.465822765     1.774671021
 H       -0.647653247     0.866851658     2.876043182
 H        0.781977856    -0.165814187     3.052681531
 H       -0.768885424    -0.679596012     3.704165490

