187   

Si        0.000000000     0.000000000     0.000000000
 C        1.865541718     0.000000000     0.000000000
 C       -0.679733026     1.710508836     0.000000000
 C        0.147812713     2.818921164     0.204545791
 C       -0.381327711     4.109506482     0.201919743
 C       -1.747961484     4.321264245     0.002789213
 C       -2.576396377     3.209121804    -0.199685839
 C       -2.050671954     1.920231676    -0.202667801
 C       -2.345416497     5.652378192    -0.007945741
 C       -1.665211938     6.797946760     0.168251208
 C       -2.262906478     8.128999028     0.157475265
 C       -1.433874439     9.241288233     0.354727997
 C       -1.959477318    10.530759366     0.352582521
 C       -3.331354752    10.737600196     0.164659278
 C       -4.161333833     9.628320829    -0.031050484
 C       -3.630639327     8.339174669    -0.038691763
Si       -4.046105005    12.435391487     0.158525697
 C       -5.824875280    12.303302801     0.575191326
 C       -6.831446545    12.861036653    -0.110339561
 C       -8.247431560    12.740458686     0.243821071
 C       -9.200525749    13.378106272    -0.564859659
 C      -10.552813194    13.299084832    -0.279263687
 C      -11.018837964    12.508294373     0.793352440
 C      -10.062389010    11.862183392     1.598264270
 C       -8.703198827    12.003452897     1.338459810
 N      -12.406518207    12.441925766     1.067641200
 C      -13.264105253    12.422691692    -0.143922107
 C      -12.805099094    11.465157668     2.094461232
 C      -14.777925607    12.446427642     0.125204448
 C      -15.265948293    13.657367405     0.947234690
 N      -15.065074024    14.988453296     0.341511967
 C      -13.741893094    15.490939601     0.435402856
 C      -13.148491953    15.522414062     1.715702602
 C      -11.862201828    16.000842178     1.871152698
 C      -11.157054300    16.541614844     0.782085550
 C      -11.761050506    16.549211128    -0.473341183
 C      -13.042382306    16.031038826    -0.653257712
 C      -15.730085578    15.133816993    -0.962778256
 C       -9.801901390    17.024791580     1.033833095
 C       -8.981582019    17.569039523     0.124655725
Si       -7.305496992    18.123792188     0.616707522
 C       -6.774091129    17.032967888     2.005342855
 C       -7.122130764    15.677471910     1.928040745
 C       -6.756579867    14.792639642     2.937332031
 C       -6.045901196    15.240063333     4.055297699
 C       -5.698550161    16.594042964     4.131768620
 C       -6.052623733    17.481340911     3.115214732
 C       -5.650751000    14.332360191     5.127316629
 C       -5.939713330    13.019528682     5.138724527
 C       -5.562200078    12.083789152     6.190478686
 C       -4.842117759    12.469423950     7.323270261
 C       -4.503952552    11.536273511     8.303603427
 C       -4.877163101    10.195647830     8.168016041
 C       -5.595083829     9.805850417     7.029012713
 C       -5.929460216    10.738126234     6.051685107
Si       -4.440948467     8.948903301     9.449771217
 C       -3.821064538     9.756041227    11.013124920
 C       -5.988869928     7.903497506     9.816349447
 C       -3.081594756     7.801588804     8.771343831
 C       -6.112818582    17.900045372    -0.845784883
 C       -7.324797784    19.947672539     1.139191802
 C       -3.103644527    13.513057197     1.407494967
 C       -3.816985629    13.202391961    -1.568133251
 C       -0.660332536    -0.897202004    -1.543415224
 C       -0.603474655    -0.929276800     1.548158344
 H        1.224185250     2.716525712     0.367624779
 H        0.285085397     4.955710781     0.359215268
 H       -3.643612374     3.351934920    -0.358027890
 H       -2.745227866     1.092221822    -0.370216658
 H       -3.426292181     5.667290899    -0.175325206
 H       -0.584212352     6.783104649     0.335683477
 H       -0.366396447     9.098921317     0.510590040
 H       -1.263729296    11.359886992     0.508267076
 H       -5.240671259     9.731267630    -0.184377846
 H       -4.295788470     7.492563233    -0.196642301
 H       -6.015908790    11.705846953     1.481860831
 H       -6.668161862    13.467232740    -1.012076939
 H       -8.874293815    13.971696369    -1.419912346
 H      -11.255041601    13.870440483    -0.884037271
 H      -10.366759469    11.250575166     2.441239677
 H       -7.988299039    11.504050585     1.994053073
 H      -13.881996511    11.557239694     2.308100306
 H      -12.284067499    11.701443154     3.041118227
 H      -12.592343193    10.420733487     1.816635213
 H      -16.778857348    14.803583518    -0.873379744
 H      -15.254787093    14.568886929    -1.779669619
 H      -15.751239699    16.204256662    -1.237192326
 H      -13.694328537    15.144997733     2.577331293
 H      -11.395386480    15.971217633     2.857029975
 H      -11.230185317    16.962424986    -1.330502200
 H      -13.479478189    16.043126071    -1.645314738
 H       -9.503754953    16.885312719     2.087625193
 H       -9.276054138    17.716398288    -0.919734629
 H       -7.683325293    15.259004741     1.080136385
 H       -7.036722639    13.742953731     2.841041312
 H       -5.143258108    16.961760488     4.991538311
 H       -5.749105500    18.524879850     3.223675572
 H       -5.089874619    14.792836757     5.943480793
 H       -6.507142364    12.570493254     4.315621109
 H       -4.539654696    13.506903783     7.451383639
 H       -3.942659009    11.896775708     9.169853398
 H       -5.910719163     8.770906460     6.869522380
 H       -6.482510678    10.415835817     5.170948174
 H      -13.012286383    13.333221380    -0.743489530
 H      -13.025211509    11.538433507    -0.778255149
 H      -15.297909947    12.428958438    -0.853548775
 H      -15.093236625    11.517512102     0.637325678
 H      -16.358769134    13.551466071     1.140467758
 H      -14.770554218    13.643021211     1.946338546
 H        2.263246992    -1.030089948    -0.031899302
 H        2.274162547     0.486501691     0.903047226
 H        2.262364715     0.535752687    -0.881384465
 H       -3.596008670     9.001796381    11.788137500
 H       -4.577936420    10.444747465    11.430249679
 H       -2.898419918    10.335967546    10.835747397
 H       -6.272013910     7.417027553     8.837755712
 C       -5.745499831     6.784903570    10.844996854
 C       -7.182303420     8.759393307    10.278238890
 H       -2.821133068     7.103659161     9.618603812
 C       -3.533767126     6.948570080     7.572823578
 C       -1.807162195     8.569463124     8.374677230
 H       -6.484133881    18.586193460    -1.659948167
 C       -4.664454340    18.295848464    -0.508688848
 C       -6.122566011    16.460246143    -1.390846978
 H       -6.270105817    20.192535190     1.457284341
 C       -7.708104726    20.904302436    -0.004574950
 C       -8.258283958    20.205359094     2.336111865
 H       -2.019135577    13.449854243     1.096415607
 C       -3.512368150    14.994142459     1.377860920
 C       -3.212215085    12.984297585     2.846680424
 H       -4.368090461    14.187740876    -1.543865663
 C       -2.346258417    13.492112164    -1.916686927
 C       -4.427905457    12.338281425    -2.685982219
 H       -1.785053522    -0.890166399    -1.446425937
 C       -0.296484936    -0.168321902    -2.849600845
 C       -0.204919268    -2.363893607    -1.643595932
 H       -0.090895994    -1.934121742     1.517299149
 C       -0.193930388    -0.224418962     2.854545656
 C       -2.123021406    -1.172079814     1.575580680
 H       -4.953035507     6.085990111    10.547325979
 H       -6.657022392     6.181835590    10.966326250
 H       -5.496224125     7.167951453    11.843409483
 H       -7.454056144     9.546906537     9.560854854
 H       -7.014291853     9.241405541    11.250445370
 H       -8.075390775     8.129392360    10.395430170
 H       -4.400040367     6.311842056     7.791129228
 H       -2.723611965     6.269177063     7.268995415
 H       -3.772354596     7.552264197     6.685317399
 H       -1.368478438     9.144609981     9.199882302
 H       -1.969935473     9.261618791     7.535589739
 H       -1.030684718     7.864419069     8.044417504
 H       -4.560690717    19.340852327    -0.190627661
 H       -4.025896828    18.181328633    -1.396249770
 H       -4.219944031    17.663937355     0.274340114
 H       -7.113192246    16.133528927    -1.734756170
 H       -5.767497495    15.727110074    -0.650193121
 H       -5.450679302    16.378620703    -2.256404070
 H       -7.035882112    20.841651705    -0.869525204
 H       -7.660584063    21.945795455     0.344987788
 H       -8.734579974    20.749044580    -0.364998935
 H       -8.015232183    19.598576542     3.219352452
 H       -9.317098512    20.027781252     2.096746678
 H       -8.185633207    21.254865664     2.653464563
 H       -3.384638666    15.466226002     0.396063402
 H       -2.895856817    15.570058346     2.082359444
 H       -4.555849802    15.157606903     1.692021553
 H       -2.901951650    11.936579829     2.957571242
 H       -4.228516050    13.075753156     3.257790726
 H       -2.563695719    13.568488345     3.514860463
 H       -1.865082064    14.194485444    -1.223630605
 H       -2.279148163    13.951068823    -2.913476276
 H       -1.728795090    12.584047885    -1.957452499
 H       -5.494358819    12.119320064    -2.540151787
 H       -3.910946220    11.375850594    -2.809777163
 H       -4.347119715    12.856090823    -3.651684842
 H       -0.642702535     0.874987318    -2.874756658
 H       -0.770398337    -0.669238873    -3.705710063
 H        0.782554422    -0.163732600    -3.052742654
 H       -0.493744219    -2.969373774    -0.774826195
 H        0.880012052    -2.467250341    -1.777627916
 H       -0.668949898    -2.841645489    -2.518749827
 H        0.890257009    -0.085625445     2.954666542
 H       -0.507987477    -0.824354199     3.720654000
 H       -0.667449463     0.760684034     2.974613655
 H       -2.491272534    -1.732953680     0.707373272
 H       -2.702105478    -0.240751433     1.647212790
 H       -2.391552211    -1.767236381     2.460620368

