187   

Si        0.000000000     0.000000000     0.000000000
 C        1.865188582     0.000000000     0.000000000
 C       -0.669898750     1.715122401     0.000000000
 C        0.107727092     2.786431030     0.451961819
 C       -0.402934280     4.084153777     0.450528880
 C       -1.702006375     4.340403313     0.003941865
 C       -2.481859332     3.265457103    -0.442836110
 C       -1.974898601     1.968739369    -0.442579128
 C       -2.277428982     5.681238964    -0.015341156
 C       -1.637865074     6.793412114     0.384656615
 C       -2.211401424     8.134920902     0.366174080
 C       -3.510044500     8.393531214    -0.079909731
 C       -4.018416256     9.692632277    -0.080289368
 C       -3.241628608    10.758709969     0.381070657
 C       -1.939221693    10.502311750     0.832690107
 C       -1.431172367     9.206878016     0.820571591
Si       -3.872321883    12.485901383     0.398043847
 C       -3.291153896    13.378454375     1.887829230
 C       -3.045172519    12.754335890     3.047350067
 C       -2.579906867    13.413617536     4.269207833
 C       -2.366929222    12.619975194     5.406867424
 C       -1.927063653    13.183270943     6.593695375
 C       -1.676619279    14.565234641     6.663005489
 C       -1.895678450    15.364932593     5.535901884
 C       -2.358947036    14.790155808     4.355505689
 N       -1.225512590    15.060106353     7.927489598
 C        0.190678772    14.714358241     8.190147730
 C       -1.525330900    16.480486403     8.179124437
 C        1.209756033    15.499252382     7.341533013
 C        2.345568661    14.624246698     6.778895344
 N        2.044596119    13.916324862     5.518691024
 C        1.513192985    14.680532683     4.464659889
 C        1.878901734    16.037626993     4.327900845
 C        1.363040984    16.801758367     3.294499258
 C        0.514115611    16.241094622     2.330440782
 C        0.185900552    14.887488061     2.442377912
 C        0.683974816    14.110248840     3.479599182
 C        1.470593148    12.575464540     5.716992948
 C        0.003268218    17.102264291     1.264762399
 C       -0.813354450    16.694972117     0.283897535
Si       -1.431519919    17.802889700    -1.032327435
 C       -1.580195401    19.531240098    -0.420766861
 C       -1.993764889    19.756576488     0.898176229
 C       -2.115758336    21.054542166     1.389956391
 C       -1.840504868    22.156032943     0.574034425
 C       -1.434840262    21.928223105    -0.747103467
 C       -1.307421728    20.631600283    -1.240586652
 C       -1.954906485    23.531845784     1.046769441
 C       -2.332510526    23.884699303     2.287274396
 C       -2.447618055    25.259537615     2.762203676
 C       -2.169241501    26.363137256     1.951824781
 C       -2.292632240    27.661122816     2.447505952
 C       -2.693120698    27.883133472     3.768743655
 C       -2.973027996    26.777644102     4.583571007
 C       -2.853864449    25.483623668     4.084654012
Si       -2.860781720    29.589834276     4.438159983
 C       -2.068819071    30.849043140     3.312630171
 C       -4.706158212    30.015488869     4.630365477
 C       -2.045863844    29.639666276     6.157815733
 C       -0.262017884    17.716713768    -2.528541780
 C       -3.151351359    17.188628038    -1.563891778
 C       -3.193575247    13.382229664    -1.135494947
 C       -5.770594338    12.534021782     0.356565935
 C       -0.650518442    -0.913889898    -1.538261163
 C       -0.628645671    -0.911115944     1.547975523
 H        1.131108813     2.648823339     0.812026594
 H        0.224453833     4.900781293     0.803142075
 H       -3.496593847     3.442843870    -0.794188202
 H       -2.630720394     1.170575192    -0.801250313
 H       -3.303812614     5.733617467    -0.390150202
 H       -0.611154907     6.740502313     0.758716487
 H       -4.137552080     7.578773939    -0.436293491
 H       -5.038289770     9.833285682    -0.448253957
 H       -1.286188900    11.299800869     1.205166733
 H       -0.416459293     9.026353535     1.170724808
 H       -3.174913348    14.467090225     1.780355661
 H       -3.166234871    11.667347389     3.171139768
 H       -2.556405175    11.547134581     5.361470301
 H       -1.789796607    12.570193940     7.482437412
 H       -1.701462738    16.433588717     5.568688480
 H       -2.525549114    15.428419284     3.485679901
 H       -1.321391622    16.696629723     9.242205100
 H       -2.602007588    16.657322764     8.008507926
 H       -0.951816943    17.190957884     7.564691563
 H        1.946876473    12.080214795     6.578008532
 H        1.691643844    11.955132856     4.828574396
 H        0.377892673    12.585308453     5.877747102
 H        2.567822127    16.492877228     5.032812213
 H        1.638487218    17.855128804     3.224702149
 H       -0.474175089    14.422328898     1.706924659
 H        0.395226048    13.064387185     3.532956932
 H        0.354440351    18.141426993     1.349117158
 H       -1.147403586    15.649082651     0.209493434
 H       -2.225263622    18.932529489     1.582613554
 H       -2.431857799    21.204123864     2.420646844
 H       -1.215979191    22.771788574    -1.398929092
 H       -0.987103834    20.516027901    -2.279477860
 H       -1.705331138    24.293825782     0.302644452
 H       -2.582573212    23.121900581     3.030519845
 H       -1.852600557    26.217536930     0.920654665
 H       -2.061266911    28.484170479     1.765670570
 H       -3.289948229    26.890174476     5.624269124
 H       -3.077538887    24.637866210     4.732008201
 H        0.374479759    14.888986004     9.273451871
 H        0.308712595    13.619754308     8.030657785
 H        0.684207201    16.003970246     6.503078266
 H        1.644198776    16.318854546     7.942091945
 H        3.241934832    15.262377244     6.583382464
 H        2.672748673    13.880919199     7.538464898
 H        2.263451065    -1.029082239    -0.052098275
 H        2.276814155     0.469859202     0.910183509
 H        2.259046662     0.553262603    -0.872189740
 H       -2.134710598    31.864452592     3.742749942
 H       -2.554875172    30.875769382     2.321683604
 H       -0.998062918    30.623559942     3.157489996
 H       -4.736533375    31.085344521     4.987655035
 C       -5.471482053    29.935395326     3.296756618
 C       -5.435316382    29.145364869     5.669662819
 H       -2.608563022    28.891208196     6.788303428
 C       -0.568507219    29.208412913     6.122212483
 C       -2.151787904    31.011113315     6.848136992
 H       -0.698339247    18.408169762    -3.305941432
 C        1.155652596    18.210525405    -2.188156483
 C       -0.163102202    16.311137366    -3.148022055
 H       -2.999151399    16.133568290    -1.939306781
 C       -4.145775229    17.143820390    -0.389940391
 C       -3.764145174    18.013541521    -2.707947462
 H       -3.448880231    14.472786481    -0.985910094
 C       -1.665663945    13.252591998    -1.261093261
 C       -3.839151715    12.920363537    -2.452796747
 H       -6.077877996    11.977566130    -0.575693644
 C       -6.400582852    11.822825239     1.567390436
 C       -6.338586717    13.961891531     0.265069636
 H       -1.775448200    -0.918304846    -1.444197540
 C       -0.289839291    -0.192410220    -2.849443838
 C       -0.181476599    -2.377203256    -1.626351933
 H       -0.159382140    -1.936506020     1.513314344
 C       -0.188456598    -0.228621750     2.856041389
 C       -2.157789778    -1.085993908     1.572485706
 H       -5.062979742    30.592636406     2.518396727
 H       -6.516267951    30.245274004     3.442790166
 H       -5.507892008    28.916061840     2.886006101
 H       -4.999828051    29.209254051     6.674824556
 H       -5.475079457    28.084423415     5.385144230
 H       -6.480270580    29.474405128     5.767417721
 H       -0.418977732    28.207953380     5.691485218
 H       -0.163020855    29.166625217     7.143182868
 H        0.069482962    29.906958348     5.564717221
 H       -3.186357152    31.355363046     6.974914184
 H       -1.598898564    31.799838273     6.320864480
 H       -1.720297312    30.956888604     7.858305583
 H        1.179496269    19.233330881    -1.787642655
 H        1.780299369    18.219806436    -3.092318189
 H        1.670349508    17.561775730    -1.464006065
 H       -1.128279940    15.917773159    -3.491591619
 H        0.280476556    15.574553029    -2.462878128
 H        0.488825906    16.336490801    -4.033307656
 H       -3.796188823    16.538402723     0.458155253
 H       -5.096575477    16.699855833    -0.717738471
 H       -4.392557939    18.143199406    -0.003536415
 H       -3.152894232    18.017300223    -3.619401565
 H       -3.951853852    19.060266883    -2.429144355
 H       -4.739447858    17.594260478    -2.994533716
 H       -1.117965298    13.585810321    -0.368776440
 H       -1.302374962    13.870197781    -2.095667662
 H       -1.342776992    12.224297159    -1.479613348
 H       -4.926252932    13.067040076    -2.482077389
 H       -3.639346270    11.864303104    -2.681818693
 H       -3.429983136    13.497859561    -3.294793401
 H       -6.088284928    10.774701319     1.671874915
 H       -7.495306967    11.808530144     1.470156256
 H       -6.182832667    12.327693960     2.520079747
 H       -5.998823063    14.509068773    -0.624109607
 H       -6.103366159    14.573047560     1.147896295
 H       -7.435752723    13.926030937     0.201811547
 H       -0.640542008     0.849029278    -2.883057050
 H       -0.759733485    -0.702440542    -3.702394106
 H        0.789541335    -0.183754918    -3.051466826
 H       -0.468005634    -2.979081577    -0.754298999
 H        0.904746339    -2.472081080    -1.756180519
 H       -0.638352666    -2.865433947    -2.499516260
 H        0.900734574    -0.137641396     2.955715081
 H       -0.527484729    -0.817606329     3.720395591
 H       -0.620026926     0.775032497     2.980075515
 H       -2.544934250    -1.654352969     0.717333140
 H       -2.696777235    -0.128710274     1.612619768
 H       -2.457818774    -1.643784538     2.471569418

