187   

Si        0.000000000     0.000000000     0.000000000
 C        1.866308261     0.000000000     0.000000000
 C       -0.664755257     1.715651468     0.000000000
 C        0.064215075     2.725329693     0.638056206
 C       -0.410770377     4.033933189     0.656313483
 C       -1.621874032     4.368744218     0.041497989
 C       -2.356479233     3.354587376    -0.583269453
 C       -1.891124813     2.040650259    -0.592268232
 C       -2.134343362     5.737177381     0.051625309
 C       -1.481844658     6.750372417     0.645836856
 C       -1.906763078     8.141329035     0.710704273
 C       -1.069532253     9.041554552     1.385056956
 C       -1.408445726    10.385264540     1.488413644
 C       -2.577733749    10.871770576     0.888785587
 C       -3.403840824     9.980127866     0.197877678
 C       -3.068201572     8.627355967     0.107541692
Si       -2.973929374    12.658708788     1.059414835
 C       -4.026330419    13.215303423    -0.330772925
 C       -3.764921994    14.300962787    -1.069618789
 C       -4.589575277    14.767508228    -2.185889782
 C       -4.185550874    15.925585954    -2.867307714
 C       -4.925447887    16.415941899    -3.932417468
 C       -6.119901142    15.779627317    -4.300126728
 C       -6.545616075    14.641681551    -3.607853855
 C       -5.783171063    14.143374411    -2.555842166
 N       -6.811660091    16.366492378    -5.417501950
 C       -6.453852433    15.692905121    -6.687965670
 C       -8.265195095    16.488569794    -5.205270629
 C       -7.065439330    14.293350226    -6.882527452
 C       -6.068471794    13.216423139    -7.352511830
 N       -5.204600081    12.589091680    -6.342478093
 C       -5.777049571    11.791981522    -5.336586578
 C       -7.166825896    11.611618306    -5.205978249
 C       -7.677280906    10.812994504    -4.193321504
 C       -6.836680859    10.057458476    -3.367134588
 C       -5.453031287    10.201751764    -3.521860898
 C       -4.928126043    11.069386857    -4.467676322
 C       -4.048133591    13.402607384    -5.930296408
 C       -7.457264213     9.242693503    -2.324068652
 C       -6.814823228     8.460343232    -1.445849908
Si       -7.704144824     7.482231305    -0.179290664
 C       -7.181668241     5.719812563    -0.146217077
 C       -6.441928251     5.150576874    -1.187171313
 C       -6.059243197     3.809154455    -1.134398325
 C       -6.431085375     3.004539361    -0.054743353
 C       -7.178348419     3.576720644     0.984575673
 C       -7.543898522     4.918229276     0.944829495
 C       -6.064370983     1.597847616     0.060877025
 C       -5.354390701     0.897546249    -0.839527952
 C       -5.008371590    -0.512493642    -0.684457477
 C       -5.394142804    -1.261292566     0.432338092
 C       -5.045895488    -2.605601758     0.546834969
 C       -4.291600704    -3.236594702    -0.450976558
 C       -3.905185972    -2.488290241    -1.568348388
 C       -4.262863528    -1.145753261    -1.685436922
Si       -3.856204947    -5.017229913    -0.253250898
 C       -5.420545719    -6.017611891    -0.071543570
 C       -2.863851414    -5.615591137    -1.765513501
 C       -2.775728989    -5.292891049     1.291209965
 C       -7.381709334     8.257221847     1.531116640
 C       -9.581773814     7.537271095    -0.502685650
 C       -3.946104970    12.866369504     2.683446815
 C       -1.413832871    13.747851009     1.142471297
 C       -0.649981434    -0.940830692    -1.519264142
 C       -0.632188326    -0.876817807     1.566001240
 H        1.019533581     2.530594157     1.133237681
 H        0.178797171     4.798611781     1.159570253
 H       -3.312108441     3.588968570    -1.050387280
 H       -2.520012074     1.283669039    -1.071157162
 H       -3.092916305     5.888767359    -0.449098112
 H       -0.524614557     6.559747299     1.146477438
 H       -0.149557029     8.685607082     1.844587706
 H       -0.722761547    11.032676762     2.044009151
 H       -4.325013706    10.306890551    -0.295706514
 H       -3.719084428     7.946111227    -0.438752970
 H       -4.912741091    12.589460545    -0.522771677
 H       -2.887590103    14.940329377    -0.898906493
 H       -3.272749112    16.440103093    -2.568706136
 H       -4.606398318    17.305085308    -4.474972879
 H       -7.471680564    14.140365921    -3.880123198
 H       -6.121685365    13.248296725    -2.031067351
 H       -8.692232041    17.078605149    -6.033766003
 H       -8.439689927    17.052276667    -4.271596156
 H       -8.810501916    15.535714312    -5.138937751
 H       -3.715803983    14.051204247    -6.755525049
 H       -3.202005082    12.736633149    -5.681730035
 H       -4.261600940    14.036940477    -5.050760881
 H       -7.859941840    12.097067888    -5.884080278
 H       -8.759179353    10.744275602    -4.073245739
 H       -4.773410743     9.634535487    -2.883554196
 H       -3.849582906    11.177840721    -4.550956157
 H       -8.554464829     9.336058540    -2.331527224
 H       -5.719630459     8.371844930    -1.440766600
 H       -6.136532360     5.731385659    -2.063227274
 H       -5.479611520     3.388591952    -1.953937176
 H       -7.472171768     2.968207305     1.837718390
 H       -8.113265913     5.311023092     1.792183267
 H       -6.416668688     1.115234732     0.978986332
 H       -4.996856534     1.365340175    -1.760074172
 H       -5.976379656    -0.797131926     1.226484236
 H       -5.390322551    -3.138599242     1.438104868
 H       -3.310162900    -2.920843855    -2.377879805
 H       -3.957286739    -0.587213137    -2.568896257
 H       -6.775835524    16.370037550    -7.510407600
 H       -5.343692437    15.650752616    -6.742181156
 H       -7.539442758    13.965770682    -5.936272750
 H       -7.892917157    14.352885621    -7.614444127
 H       -6.638252660    12.388293154    -7.843270020
 H       -5.408379514    13.635766956    -8.146684839
 H        2.264173158    -1.029814818    -0.025155273
 H        2.279138032     0.494645666     0.895819487
 H        2.259168457     0.530636297    -0.886142387
 H       -5.198633345    -7.094579431     0.027913496
 H       -6.073745707    -5.891900662    -0.954444970
 H       -6.001340202    -5.710133696     0.815513657
 H       -2.035105081    -4.861192027    -1.906592848
 C       -2.211755642    -6.996739130    -1.569265682
 C       -3.701907919    -5.654323455    -3.056965009
 H       -2.646679878    -6.412731923     1.358536963
 C       -1.379562717    -4.656089926     1.187660862
 C       -3.430538702    -4.815130057     2.600007957
 H       -8.097740291     7.743144912     2.235836916
 C       -5.956810981     8.015118853     2.053807217
 C       -7.682399716     9.765992704     1.561366704
 H       -9.847676869     8.628940768    -0.605087656
 C       -9.970089408     6.820416699    -1.808904325
 C      -10.427798939     6.955277010     0.643588184
 H       -3.241833991    12.534504030     3.500654380
 C       -4.354250555    14.323816361     2.959407933
 C       -5.199317075    11.976887535     2.746574542
 H       -1.786755974    14.805592510     0.998740076
 C       -0.662299787    13.714742239     2.484977312
 C       -0.422930470    13.434913487     0.006560768
 H       -1.767449101    -1.020618100    -1.366986084
 C       -0.401599896    -0.190961641    -2.840564413
 C       -0.092261679    -2.369319807    -1.650376749
 H       -0.287396203    -1.947836440     1.482441834
 C       -0.042618200    -0.288737426     2.861340940
 C       -2.165202979    -0.865829852     1.677165846
 H       -1.511595886    -7.032308278    -0.724530277
 H       -1.628185741    -7.266255103    -2.461639382
 H       -2.944698142    -7.801873124    -1.428569224
 H       -4.214693221    -4.710197300    -3.284230441
 H       -4.466071479    -6.443514179    -3.041634049
 H       -3.054933911    -5.869133137    -3.919490571
 H       -0.803740222    -4.998879652     0.318895171
 H       -0.780756240    -4.912378449     2.073400887
 H       -1.423113719    -3.556252903     1.153869620
 H       -4.430177583    -5.233592972     2.770284919
 H       -3.505850005    -3.719831007     2.660358413
 H       -2.819027694    -5.126825615     3.459385635
 H       -5.665588718     6.955277624     2.064254823
 H       -5.869002287     8.364731985     3.092077374
 H       -5.191296839     8.560325240     1.482724397
 H       -8.718569549    10.009570452     1.295038021
 H       -7.022522741    10.345999686     0.898991889
 H       -7.526884331    10.159121996     2.576468781
 H       -9.436306801     7.192407972    -2.694048008
 H      -11.040976198     6.960188801    -2.012805720
 H       -9.805113283     5.734167017    -1.761702475
 H      -10.281239367     7.471888108     1.600468009
 H      -10.248908662     5.883298548     0.806455113
 H      -11.497422871     7.051825886     0.405863407
 H       -3.503451411    15.015275517     3.008630189
 H       -4.863008514    14.394283686     3.931491506
 H       -5.059552922    14.718775895     2.214138295
 H       -4.986536606    10.909646153     2.583025313
 H       -5.973013076    12.278350792     2.026955141
 H       -5.659419294    12.046035840     3.742435397
 H       -1.288537989    13.999504312     3.340494008
 H        0.171781912    14.431605973     2.463749252
 H       -0.215646094    12.737731405     2.711459306
 H       -0.869250393    13.502376733    -0.995784142
 H        0.026804112    12.435663657     0.094068184
 H        0.410887073    14.150537359     0.022429864
 H       -0.819474150     0.825435262    -2.851656827
 H       -0.873195569    -0.728801104    -3.674822724
 H        0.664203032    -0.107696540    -3.090728840
 H       -0.279051589    -2.991655551    -0.765418729
 H        0.986422035    -2.390337895    -1.851738650
 H       -0.574596831    -2.883602299    -2.494198092
 H        1.052156431    -0.341691040     2.905230586
 H       -0.413484993    -0.850956238     3.730340968
 H       -0.335849953     0.757951571     3.026165928
 H       -2.672892031    -1.324639465     0.815413489
 H       -2.579094726     0.146038600     1.797181040
 H       -2.486548989    -1.437645601     2.558700536

