187   

Si        0.000000000     0.000000000     0.000000000
 C        1.865077965     0.000000000     0.000000000
 C       -0.670281581     1.715058218     0.000000000
 C        0.079867910     2.770577851    -0.529537670
 C       -0.425879502     4.070110630    -0.530511378
 C       -1.693981597     4.343664833    -0.010767521
 C       -2.447143727     3.284342037     0.512364386
 C       -1.944531234     1.985816166     0.515242628
 C       -2.263203697     5.687164107     0.008978267
 C       -1.646627298     6.785621049    -0.459168821
 C       -2.214283279     8.129709088    -0.440227025
 C       -3.482681767     8.404851331     0.079371678
 C       -3.986510566     9.704701342     0.077483704
 C       -3.226864229    10.759404169    -0.440195897
 C       -1.956504325    10.487925031    -0.962777943
 C       -1.459885150     9.186802260    -0.965599494
Si       -3.886090789    12.476240751    -0.445440857
 C       -2.509819927    13.659810111    -0.666164264
 C       -2.470885404    14.657599833    -1.558245063
 C       -1.345955965    15.584949492    -1.701849197
 C       -1.423951865    16.592236758    -2.676276900
 C       -0.388076648    17.494133311    -2.852569854
 C        0.781292211    17.391133492    -2.071727646
 C        0.861725764    16.389112037    -1.094082828
 C       -0.202004842    15.513043502    -0.903826614
 N        1.801319576    18.348618114    -2.305966499
 C        2.385066204    18.317183290    -3.662549861
 C        2.798151017    18.502717014    -1.235584346
 C        3.569436243    17.359074238    -3.879696861
 C        3.222749403    15.864459105    -3.745855240
 N        2.503426930    15.272225057    -4.884139099
 C        3.031118633    15.456145951    -6.167340356
 C        4.432194727    15.492911318    -6.348537091
 C        4.970642396    15.674071500    -7.611391402
 C        4.149448228    15.776979236    -8.743758950
 C        2.764884584    15.710799651    -8.565883638
 C        2.205744130    15.547590458    -7.305608334
 C        1.042756693    15.245652519    -4.742364132
 C        4.771803957    15.967862919   -10.054140154
 C        4.090016982    16.079113874   -11.202466243
Si        4.863775648    16.317607859   -12.841091935
 C        6.453895306    17.236097587   -12.727183155
 C        6.622154783    18.213637976   -11.739377299
 C        7.819745831    18.919529498   -11.637920250
 C        8.869421193    18.676504645   -12.528498246
 C        8.695427021    17.704508087   -13.522147649
 C        7.502022389    16.993426355   -13.622827209
 C       10.139961918    19.390937940   -12.460026954
 C       10.434526971    20.343109369   -11.558540221
 C       11.704724251    21.057923847   -11.489440790
 C       12.757115419    20.812691671   -12.375157671
 C       13.955090578    21.519861883   -12.272831016
 C       14.128648487    22.484856177   -11.275796142
 C       13.074719503    22.732255390   -10.385612967
 C       11.878300400    22.029101482   -10.493991656
Si       15.703638159    23.426482838   -11.127711817
 C       17.063653331    22.651478814   -12.142210801
 C       15.431875337    25.211852913   -11.729253692
 C       16.200648344    23.476016232    -9.290685432
 C        5.145914061    14.614057527   -13.640305769
 C        3.662170961    17.310987973   -13.931456679
 C       -5.169281863    12.649492511    -1.837960387
 C       -4.734098223    12.833077562     1.219533415
 C       -0.629785767    -0.904150851    -1.551811697
 C       -0.648964841    -0.923519909     1.533228868
 H        1.077828448     2.618848038    -0.950275098
 H        0.180013961     4.874401797    -0.944024540
 H       -3.437653310     3.475014102     0.920971590
 H       -2.578984027     1.200299444     0.934902643
 H       -3.264180322     5.753443064     0.445139949
 H       -0.645729317     6.718240194    -0.895833078
 H       -4.089711527     7.600913733     0.491381208
 H       -4.984927257     9.858692751     0.495914233
 H       -1.321802035    11.274079068    -1.384620457
 H       -0.472028897     8.992790754    -1.379718630
 H       -1.674686990    13.490512405     0.034590554
 H       -3.288392279    14.858238041    -2.262830760
 H       -2.317944594    16.677015198    -3.294838046
 H       -0.475357213    18.295882197    -3.583530604
 H        1.746873713    16.292013861    -0.472374240
 H       -0.125543964    14.749892382    -0.127659076
 H        3.430459515    19.379304469    -1.461555058
 H        3.452151879    17.628901770    -1.090198604
 H        2.275949472    18.714843572    -0.285250140
 H        0.765980355    15.031358282    -3.692974798
 H        0.631747380    14.420839186    -5.353231931
 H        0.552539608    16.188600897    -5.034864007
 H        5.094437538    15.376787127    -5.496075187
 H        6.054609523    15.720641416    -7.726317855
 H        2.103374814    15.788127573    -9.430014531
 H        1.125678125    15.507398739    -7.212312844
 H        5.869132409    16.019243756   -10.008100408
 H        2.991816836    16.012659578   -11.221825020
 H        5.832556096    18.451190362   -11.018223058
 H        7.929477382    19.668407127   -10.855777748
 H        9.500001832    17.500594230   -14.225859885
 H        7.424634733    16.247236449   -14.418114000
 H       10.872260014    19.095628029   -13.217090610
 H        9.701526161    20.638942923   -10.802293935
 H       12.649023510    20.063781313   -13.157534629
 H       14.741427212    21.284717846   -12.995421358
 H       13.153423678    23.474540723    -9.586244052
 H       11.070484212    22.236783692    -9.794896869
 H        1.583869932    18.088698059    -4.400471798
 H        2.718235458    19.360567550    -3.882885480
 H        3.990964047    17.553104204    -4.889279242
 H        4.386684679    17.602525816    -3.175150982
 H        4.164869824    15.279279374    -3.610900839
 H        2.629243008    15.691843505    -2.819051371
 H        2.263218701    -1.029131676     0.051434041
 H        2.259006196     0.553091441     0.872292360
 H        2.277007465     0.470663192    -0.909625115
 H       18.015894017    23.196645898   -12.013933161
 H       16.822576142    22.653030329   -13.219648084
 H       17.237723097    21.603686502   -11.836770722
 H       16.441132447    25.712319544   -11.664626658
 C       14.960238218    25.275439596   -13.193546642
 C       14.446737162    26.012814892   -10.859140626
 H       15.356807643    24.001637399    -8.755960885
 C       16.340733447    22.069624753    -8.680532318
 C       17.492725683    24.269041634    -9.025416449
 H        5.566626534    14.815057054   -14.667532992
 C        6.166601696    13.765884595   -12.860649336
 C        3.849102648    13.802509210   -13.809876046
 H        2.711378554    16.705718969   -13.979078831
 C        3.324276958    18.684429973   -13.323832927
 C        4.173856252    17.512126134   -15.368430696
 H       -5.453356269    13.741384490    -1.863829504
 C       -4.592977164    12.269944177    -3.214564663
 C       -6.449715153    11.830768814    -1.596425042
 H       -5.585588601    12.096497140     1.297512891
 C       -3.797579342    12.604184205     2.419151004
 C       -5.322442189    14.252205324     1.303975249
 H       -0.164670760    -1.931498067    -1.520343370
 C       -2.159689230    -1.072224477    -1.577043626
 C       -0.186105597    -0.219139716    -2.857268224
 H       -1.774113091    -0.925556217     1.441838707
 C       -0.182611101    -2.388522349     1.609060184
 C       -0.283440600    -0.213383092     2.849307512
 H       15.651959661    24.793925316   -13.896618061
 H       14.874111020    26.322820098   -13.516647370
 H       13.968038947    24.825396772   -13.342259413
 H       14.756819461    26.091592303    -9.809504305
 H       13.427251707    25.602555659   -10.880782868
 H       14.368509268    27.044054632   -11.233416405
 H       15.430996470    21.460520171    -8.781494535
 H       16.541896550    22.144391014    -7.602367404
 H       17.172043481    21.495579509    -9.110815685
 H       17.443620364    25.309237104    -9.372447696
 H       18.379534374    23.806620180    -9.478738558
 H       17.689483004    24.315032424    -7.944367158
 H        7.144573926    14.253767791   -12.746895562
 H        6.353449875    12.819859321   -13.387674064
 H        5.815158385    13.494101681   -11.854377657
 H        3.094242919    14.309527128   -14.423991733
 H        3.380960109    13.540552992   -12.850449705
 H        4.065606094    12.850113921   -14.314939892
 H        2.897943377    18.621405596   -12.313334146
 H        2.575059540    19.197050785   -13.943447572
 H        4.193985884    19.355554865   -13.275852855
 H        4.349871614    16.570633181   -15.904093443
 H        5.100754146    18.101743761   -15.414132148
 H        3.429826083    18.066223513   -15.958782884
 H       -3.693526711    12.838161180    -3.488049602
 H       -5.334472406    12.466574618    -4.001573745
 H       -4.340996820    11.201972529    -3.290061861
 H       -6.978509365    12.109274686    -0.676003891
 H       -6.266034134    10.747449767    -1.565553093
 H       -7.161001224    11.995234506    -2.419089469
 H       -3.369906115    11.591991257     2.450918869
 H       -4.352676667    12.731353192     3.359611591
 H       -2.963969875    13.318748042     2.454950584
 H       -6.067193310    14.462269731     0.525521281
 H       -4.555214900    15.037920363     1.251050406
 H       -5.836753991    14.389927846     2.265979152
 H       -2.548756445    -1.646458164    -0.726695513
 H       -2.462739429    -1.620506907    -2.480904002
 H       -2.694781501    -0.112361203    -1.607958355
 H        0.903569647    -0.133545780    -2.956484748
 H       -0.612673015     0.787136515    -2.977774267
 H       -0.527980242    -0.803067929    -3.723909892
 H       -0.470644809    -2.982535166     0.732113919
 H       -0.640018736    -2.883282122     2.478226983
 H        0.903519380    -2.486448116     1.737410187
 H       -0.628514183     0.829542884     2.891352487
 H        0.796316027    -0.211624473     3.049798320
 H       -0.754619430    -0.727648638     3.698998225

