187   

Si        0.000000000     0.000000000     0.000000000
 C        1.865025685     0.000000000     0.000000000
 C       -0.687625031     1.708426373     0.000000000
 C        0.128368978     2.830567160    -0.173233621
 C       -0.417705212     4.115281202    -0.169272011
 C       -1.787952936     4.307505326     0.023050773
 C       -2.604135189     3.181316600     0.201316836
 C       -2.063931305     1.899079522     0.187447888
 C       -2.412610464     5.625502168     0.036702889
 C       -1.767145164     6.792365383    -0.129541705
 C       -2.416755274     8.099979747    -0.111552102
 C       -3.793220899     8.250361814     0.084213220
 C       -4.379217848     9.514867037     0.095331003
 C       -3.598331715    10.662039692    -0.085782590
 C       -2.219739904    10.515261855    -0.282290109
 C       -1.638103512     9.249140025    -0.296875330
Si       -4.379280174    12.329659536    -0.069934726
 C       -3.079860156    13.622525401    -0.059541457
 C       -3.075293956    14.656358368    -0.912525528
 C       -2.073794703    15.720492758    -0.960610201
 C       -2.226146926    16.728956283    -1.923214222
 C       -1.316597441    17.767179610    -2.026379346
 C       -0.261638446    17.892892528    -1.096242952
 C       -0.125386214    16.892350792    -0.110088581
 C       -1.006795586    15.820207604    -0.063489234
 N        0.653099191    18.943440161    -1.206228379
 C        0.259284531    20.215552159    -1.831859935
 C        1.656151147    19.094445184    -0.142810620
 C       -0.179012410    21.296160387    -0.825203874
 C       -1.409818735    22.100145265    -1.284601498
 N       -2.721668165    21.436216614    -1.117441790
 C       -2.862958653    20.665526955     0.059491341
 C       -2.494830930    21.259869426     1.284794788
 C       -2.614021049    20.547763911     2.465756610
 C       -3.147385325    19.251023673     2.476019753
 C       -3.540451685    18.677351644     1.264851181
 C       -3.408441516    19.372443411     0.068551819
 C       -3.254251909    20.849246597    -2.356156813
 C       -3.246589070    18.551600428     3.756817067
 C       -3.735166824    17.313906560     3.905319094
Si       -3.859867050    16.438757804     5.504036843
 C       -3.125750678    14.761394966     5.340826946
 C       -2.644818253    14.283321553     4.118174851
 C       -2.092542264    13.004628144     4.025608902
 C       -2.028021478    12.176330344     5.147736019
 C       -2.510720133    12.658693368     6.372673889
 C       -3.044794994    13.938530990     6.471904395
 C       -1.464757289    10.833798285     5.117404590
 C       -0.958731169    10.214141090     4.037805074
 C       -0.408330070     8.862342905     4.079809756
 C       -0.373194553     8.117800196     5.263683204
 C        0.155888691     6.830514132     5.282249568
 C        0.645800919     6.246692767     4.107302068
 C        0.593994939     6.981289960     2.917752392
 C        0.064207055     8.270832515     2.903160020
Si        1.330049766     4.541843815     4.209795972
 C        2.532017172     4.415059025     5.632528805
 C       -0.111317138     3.325355061     4.472934422
 C        2.204344510     4.062293476     2.590711646
 C       -2.957721790    17.435986305     6.852246175
 C       -5.687144382    16.250458177     5.995253886
 C       -5.436167527    12.504930638    -1.649921886
 C       -5.558120553    12.515885181     1.412019889
 C       -0.596926553    -0.926049585    -1.552310338
 C       -0.658282615    -0.904777962     1.539784624
 H        1.208824726     2.741958530    -0.318397282
 H        0.237753208     4.972126774    -0.314793579
 H       -3.674610474     3.308378756     0.351567836
 H       -2.751659170     1.060792326     0.330590957
 H       -3.494658099     5.611674669     0.201343672
 H       -0.685892679     6.816121597    -0.288825210
 H       -4.422075821     7.374847939     0.234819832
 H       -5.459231560     9.568355594     0.259585171
 H       -1.561740950    11.376790481    -0.433595553
 H       -0.566035912     9.155696342    -0.458288127
 H       -2.299652654    13.501653446     0.705409496
 H       -3.857656683    14.792650286    -1.674351583
 H       -3.056456686    16.680762950    -2.628867241
 H       -1.420634490    18.485105917    -2.834398367
 H        0.665337652    16.950111414     0.630756632
 H       -0.869598602    15.055051231     0.702817797
 H        2.320023130    19.946635831    -0.363566428
 H        2.291435411    18.189232012    -0.111279622
 H        1.210206862    19.250089688     0.854698873
 H       -3.191058308    21.591155645    -3.169825057
 H       -4.327828919    20.624733019    -2.211593733
 H       -2.745947505    19.926645399    -2.677956513
 H       -2.120926559    22.279856658     1.300180182
 H       -2.304290580    21.012945555     3.401828503
 H       -3.948235006    17.664529848     1.244839320
 H       -3.698394971    18.883183326    -0.857312972
 H       -2.869447666    19.148486080     4.598281145
 H       -4.114413384    16.742728866     3.042150409
 H       -2.674773616    14.886852414     3.204635236
 H       -1.711757025    12.653959800     3.067225168
 H       -2.464925744    12.027930124     7.258104574
 H       -3.403081627    14.260890811     7.453698878
 H       -1.475646659    10.323823638     6.087211284
 H       -0.944555993    10.697524864     3.058132355
 H       -0.753684693     8.544233470     6.190260145
 H        0.166142103     6.305946978     6.242240502
 H        0.941760512     6.567601309     1.967674788
 H        0.013759317     8.820019452     1.964092254
 H        1.140509134    20.574495671    -2.415695874
 H       -0.540770189    20.039500095    -2.582828101
 H       -0.382476416    20.827675163     0.160549237
 H        0.657134156    21.995050595    -0.637972439
 H       -1.464363740    23.046807181    -0.692332024
 H       -1.288076296    22.413004807    -2.343614738
 H        2.260526263    -1.031228738    -0.025466706
 H        2.265184709     0.484299244     0.909062166
 H        2.272995700     0.533262635    -0.876388435
 H        2.925713693     3.388658882     5.733194891
 H        2.061833326     4.690169662     6.592260117
 H        3.393191020     5.090533428     5.479879454
 H        0.334179573     2.294078503     4.366779692
 C       -0.747874485     3.422379432     5.871459030
 C       -1.218639605     3.485494296     3.418999174
 H        1.415081854     4.132926740     1.784775620
 C        3.360507318     5.007744054     2.216098792
 C        2.742055348     2.619587630     2.600980661
 H       -3.331562316    18.496109842     6.742518599
 C       -3.255952450    16.988252537     8.293816734
 C       -1.431871352    17.440397316     6.643391684
 H       -5.680741067    15.728696675     6.996114234
 C       -6.408670003    17.599297276     6.161272465
 C       -6.482362920    15.374867505     5.011365680
 H       -5.801832560    13.571943317    -1.659345851
 C       -4.615344042    12.262011379    -2.930211017
 C       -6.670196478    11.586051317    -1.686286980
 H       -6.512628381    12.001148472     1.095849366
 C       -5.075003200    11.830959094     2.699147330
 C       -5.889978754    13.987166239     1.718362434
 H       -0.079324913    -1.928461582    -1.524167730
 C       -2.114820166    -1.177391974    -1.584936696
 C       -0.187608084    -0.214321724    -2.854971286
 H       -1.783547346    -0.884876642     1.450727521
 C       -0.217241725    -2.377215593     1.618873016
 C       -0.278371485    -0.197869485     2.852865266
 H       -0.033051088     3.266805494     6.688727699
 H       -1.519127122     2.646953435     5.985278817
 H       -1.254172246     4.382686206     6.042213902
 H       -0.868298780     3.324214570     2.388107536
 H       -1.701192820     4.473326651     3.446572479
 H       -2.017434775     2.750237070     3.588411008
 H        3.071451361     6.066290481     2.172828340
 H        3.748611298     4.751840262     1.220226865
 H        4.210619869     4.932599439     2.907296911
 H        1.961907328     1.868453099     2.785752213
 H        3.537099054     2.463082202     3.341465936
 H        3.181385634     2.378618790     1.621963434
 H       -4.325215567    16.989802019     8.540290036
 H       -2.777005925    17.677062065     9.005254302
 H       -2.857606223    15.991100800     8.524093192
 H       -1.125013611    17.799460069     5.650953392
 H       -0.981112817    16.447200871     6.783250324
 H       -0.950950597    18.103470130     7.375613433
 H       -5.945899570    18.252537517     6.912025511
 H       -7.443494975    17.434682800     6.493523380
 H       -6.473906618    18.167191087     5.221934637
 H       -6.043657489    14.376843384     4.865595707
 H       -6.593937305    15.840701597     4.022374880
 H       -7.499921816    15.208937064     5.392139735
 H       -3.722548542    12.896789495    -3.011877017
 H       -5.227296325    12.473779307    -3.817932122
 H       -4.281711863    11.218588962    -3.027336416
 H       -7.369681774    11.758068767    -0.858726139
 H       -6.408982000    10.518691475    -1.692272782
 H       -7.241991987    11.763920009    -2.608906827
 H       -4.801923093    10.775561139     2.564946676
 H       -5.867935914    11.849064643     3.459707979
 H       -4.210499402    12.335895294     3.153001047
 H       -6.290248099    14.537301045     0.857660198
 H       -5.021830124    14.545975828     2.098750713
 H       -6.659567773    14.040055680     2.501960353
 H       -2.483374722    -1.739899171    -0.717900492
 H       -2.376688971    -1.774599036    -2.470700584
 H       -2.698964165    -0.249554161    -1.660028225
 H        0.896108653    -0.069541097    -2.951699924
 H       -0.666127019     0.768587841    -2.972897359
 H       -0.496107518    -0.812509774    -3.724304780
 H       -0.519902715    -2.970176741     0.746313587
 H       -0.678621493    -2.860819314     2.492207443
 H        0.867667223    -2.493718522     1.741734526
 H       -0.604303111     0.853198348     2.887481793
 H        0.800105930    -0.221131167     3.056674339
 H       -0.764125081    -0.696152698     3.703796401

